nproc:128
Pcrystal executable in: /users/fbodo/SVN_PUB_NEW/bin/Linux-gfortran_new/std/Pcrystal
Master system: Linux x005 5.15.0-47-generic #51-Ubuntu SMP Thu Aug 11 07:51:15 UTC 2022 x86_64 x86_64 x86_64 GNU/Linux
ls -ltr $BINDIR
total 420340
-rwxr-xr-x 1 fbodo linuxusers 101580248 Oct 28 17:33 properties
-rwxr-xr-x 1 fbodo linuxusers 101643032 Oct 28 17:33 Pproperties
-rwxr-xr-x 1 fbodo linuxusers 112779232 Oct 28 17:33 Pcrystal
-rwxr-xr-x 1 fbodo linuxusers 112716416 Oct 28 17:33 crystal
================================================================================
Module loading in /lustre/scratch/client/users/fbodo/prova/tmp_p258862
================================================================================
Loading gcc and openmpi modules ...
1) # module load gcc/11.2.0
2) # module load openmpi/4.1.6-a4ksrza
================================================================================
Starting Pcrystal SLURM job
================================================================================
Time: Sun Jan  5 09:27:15 PM CST 2025
SLURM job ID: 17064795
Master hostname: x005
User: fbodo
Input file: MgIO32_p21_FREQ_exp_pbe0d3.d12
Output file: MgIO32_p21_FREQ_exp_pbe0d3.out
Number of processors: 128
Nodes list: x005
================================================================================
Creating temporary directory /lustre/scratch/client/users/fbodo/prova/tmp_p258862 on each node...
Copying input file MgIO32_p21_FREQ_exp_pbe0d3.d12 on each node...
Copying Pcrystal on each node...
================================================================================
Contents of input file
================================================================================
Mg(IO3)2 P21
CRYSTAL
0 0 0
4
10.91605598     4.68776248    10.98887642  119.789006
18
12    -4.903732918879E-01  4.271861541519E-01  2.557142422820E-01
12    -9.563724418721E-03 -7.252180568825E-02  2.442235950387E-01
53     1.661378258389E-01  4.806547198977E-01  9.418387008516E-02
53     3.338992320153E-01 -1.924566255759E-02  4.059239258138E-01
53    -1.659224968894E-01 -1.313647033279E-02  4.303985020059E-01
53    -3.340487363262E-01  4.868766829155E-01  6.957600889604E-02
 8     3.322660673415E-01 -3.326637088886E-01  1.326632234814E-01
 8     5.279386007310E-02 -3.210826924982E-01 -7.085622061642E-02
 8     1.324281343095E-01 -2.874962458938E-01  2.107363852037E-01
 8     3.675718166901E-01  2.126017097143E-01  2.893022037881E-01
 8     1.677577014255E-01  1.673641752107E-01  3.674250947537E-01
 8     4.472087064227E-01  1.789856397823E-01 -4.290598266104E-01
 8    -3.157630591615E-01  2.111400326659E-01  4.079584283763E-01
 8    -2.448685256746E-02  1.897697936336E-01 -4.205484240716E-01
 8    -1.412571939797E-01  1.538730422195E-01  2.912388147726E-01
 8    -3.587342601174E-01 -3.461983836910E-01  2.087457123235E-01
 8    -1.841965254314E-01 -2.888695071723E-01  9.206692214968E-02
 8    -4.755025007551E-01 -3.102374734688E-01 -7.945616410059E-02
FREQCALC
NUMDERIV
2
INTENS
INTRAMAN
INTCPHF
END
END
BASISSET
POB-TZVP-REV2
DFT
PBE0-D3
HUGEGRID
END
TOLINTEG
9 9 9 9 27
TOLDEE
9
SHRINK
6 6
END

================================================================================
Time: Sun Jan  5 09:27:16 PM CST 2025
Starting Pcrystal job in /lustre/scratch/client/users/fbodo/prova/tmp_p258862 on each node...
================================================================================

command /hpc/m3/spack/opt/spack/linux-ubuntu22.04-zen3/gcc-11.2.0/openmpi-4.1.6-a4ksrzarq4qdqcx545m6o47ytlwsgqyk/bin/mpirun -np 128 Pcrystal < /lustre/scratch/client/users/fbodo/prova/tmp_p258862/INPUT
/hpc/m3/spack/opt/spack/linux-ubuntu22.04-zen3/gcc-11.2.0/openmpi-4.1.6-a4ksrzarq4qdqcx545m6o47ytlwsgqyk/bin/mpirun
         128 PROCESSORS WORKING

         
 *******************************************************************************
 *                                                                             *
 *                               CRYSTAL23                                     *
 *                      public : 1.0.1 - October 2022                          *
 *                       HTTP://WWW.CRYSTAL.UNITO.IT                           *
 *                                                                             *
 *                              MAIN AUTHORS                                   *
 *                                                                             *
 *  R. DOVESI(1,11), V.R. SAUNDERS(2), C. ROETTI(1,11), R. ORLANDO(1,11),      *
 *  C.M. ZICOVICH-WILSON(1,3), F. PASCALE(4), B. CIVALLERI(1,11),              *
 *  K. DOLL(5), N.M. HARRISON(6), I.J. BUSH(7), Ph. D'ARCO(8),                 *
 *  M. LLUNELL(9), M. CAUSA'(10), Y. NOEL(8), L. MASCHIO(1,11), A. ERBA(1,11)  *
 *  M. RE'RAT(14), S. CASASSA(1,11), B.G. SEARLE(2), J.K. DESMARAIS(1)         *
 *                                                                             *
 *        CONTRIBUTIONS TO THE CODE HAVE ALSO BEEN GIVEN BY                    *
 *                                                                             *
 *  M. FERRABONE(1,11), M. DE LA PIERRE(1,11), M. FERRERO(1,11),               *
 *  J. BAIMA(1,11), E. ALBANESE(1,11), M.F. PEINTINGER(12), R. BAST(13),       *
 *  B. KIRTMAN(15), V. LACIVITA(1,11), R. DEMICHELIS(1,16)                     *
 *  G. BRANDEBURG(17), S. SALUSTRO(1,11), G. SANSONE(1,11)                     *
 *  M.T. RUGGIERO(18), L.E. DAGA(1), L. DONA'(1), A. COSSARD(1)                *
 *                                                                             *
 * (1) THEORETICAL CHEMISTRY GROUP - UNIVERSITA' DI TORINO - TORINO (ITALY)    *
 * (2) SCIENTIFIC COMPUTING DEPARTMENT - STFC DARESBURY (UK)                   *
 * (3) UNIVERSIDAD AUTONOMA DEL ESTADO DE MORELOS - CUERNAVACA (MEXICO)        *
 * (4) UNIVERSITE' DE LORRAINE - NANCY (FRANCE)                                *
 * (5) UNIVERSITAET STUTTGART- STUTTGART (GERMANY)                             *
 * (6) IMPERIAL COLLEGE - LONDON (UK)                                          *
 * (7) SCIENTIFIC COMPUTING DEPARTMENT - STFC RAL (UK)                         *
 * (8) UPMC - SORBONNE UNIVERSITES - PARIS (FRANCE)                            *
 * (9) UNIVERSIDAD DE BARCELONA - BARCELONA (SPAIN)                            *
 *(10) UNIVERSITA' DI NAPOLI "FEDERICO II" - NAPOLI (ITALY)                    *
 *(11) NIS - NANOSTRUCTURED INTERFACES AND SURFACES - TORINO (ITALY)           *
 *(12) MPI FUER CHEMISCHE ENERGIEKONVERSION - MUELHEIM AN DER RUHR (GERMANY)   *
 *(13) UNIVERSITY OF TROMSO - TROMSO (NORWAY)                                  *
 *(14) UNIVERSITE' DE PAU ET DES PAYS DE L'ADOUR - PAU (FRANCE)                *
 *(15) UNIVERSITY OF CALIFORNIA SANTA BARBARA - SANTA BARBARA (USA)            *
 *(16) CURTIN UNIVERSITY - PERTH (AUSTRALIA)                                   *
 *(17) UNIVERSITY COLLEGE LONDON - LONDON (UK)                                 *
 *(18) UNIVERSITY OF VERMONT - BURLINGTON (USA)                                *
 *                                                                             *
 *******************************************************************************
 EEEEEEEEEE STARTING  DATE 05 01 2025 TIME 21:27:19.3
 Mg(IO3)2 P21                                                                    

 CRYSTAL CALCULATION
 (INPUT ACCORDING TO THE INTERNATIONAL TABLES FOR X-RAY CRYSTALLOGRAPHY)
 CRYSTAL FAMILY                       :  MONOCLINIC  
 CRYSTAL CLASS  (GROTH - 1921)        :  MONOCLINIC SPHENOIDAL                

 SPACE GROUP (NONCENTROSYMMETRIC)     :  P 21            

 LATTICE PARAMETERS  (ANGSTROMS AND DEGREES) - CONVENTIONAL CELL
        A           B           C        ALPHA        BETA       GAMMA
    10.91606     4.68776    10.98888    90.00000   119.78901    90.00000


 NUMBER OF IRREDUCIBLE ATOMS IN THE CONVENTIONAL CELL:   18

 INPUT COORDINATES

 ATOM AT. N.              COORDINATES
   1  12    -4.903732918879E-01  4.271861541519E-01  2.557142422820E-01
   2  12    -9.563724418721E-03 -7.252180568825E-02  2.442235950387E-01
   3  53     1.661378258389E-01  4.806547198977E-01  9.418387008516E-02
   4  53     3.338992320153E-01 -1.924566255759E-02  4.059239258138E-01
   5  53    -1.659224968894E-01 -1.313647033279E-02  4.303985020059E-01
   6  53    -3.340487363262E-01  4.868766829155E-01  6.957600889604E-02
   7   8     3.322660673415E-01 -3.326637088886E-01  1.326632234814E-01
   8   8     5.279386007310E-02 -3.210826924982E-01 -7.085622061642E-02
   9   8     1.324281343095E-01 -2.874962458938E-01  2.107363852037E-01
  10   8     3.675718166901E-01  2.126017097143E-01  2.893022037881E-01
  11   8     1.677577014255E-01  1.673641752107E-01  3.674250947537E-01
  12   8     4.472087064227E-01  1.789856397823E-01 -4.290598266104E-01
  13   8    -3.157630591615E-01  2.111400326659E-01  4.079584283763E-01
  14   8    -2.448685256746E-02  1.897697936336E-01 -4.205484240716E-01
  15   8    -1.412571939797E-01  1.538730422195E-01  2.912388147726E-01
  16   8    -3.587342601174E-01 -3.461983836910E-01  2.087457123235E-01
  17   8    -1.841965254314E-01 -2.888695071723E-01  9.206692214968E-02
  18   8    -4.755025007551E-01 -3.102374734688E-01 -7.945616410059E-02

 *******************************************************************************

 << INFORMATION >>: FROM NOW ON, ALL COORDINATES REFER TO THE PRIMITIVE CELL

 *******************************************************************************

 LATTICE PARAMETERS  (ANGSTROMS AND DEGREES) - PRIMITIVE CELL
       A          B          C        ALPHA      BETA     GAMMA        VOLUME
   10.91606    4.68776   10.98888    90.00000 119.78901  90.00000    488.016733

 COORDINATES OF THE EQUIVALENT ATOMS (FRACTIONAL UNITS)

 N. ATOM EQUIV AT. N.          X                  Y                  Z

   1   1   1   12 MG   -4.90373291888E-01  4.27186154152E-01  2.55714242282E-01
   2   1   2   12 MG    4.90373291888E-01 -7.28138458481E-02 -2.55714242282E-01

   3   2   1   12 MG   -9.56372441872E-03 -7.25218056882E-02  2.44223595039E-01
   4   2   2   12 MG    9.56372441872E-03  4.27478194312E-01 -2.44223595039E-01

   5   3   1   53 I     1.66137825839E-01  4.80654719898E-01  9.41838700852E-02
   6   3   2   53 I    -1.66137825839E-01 -1.93452801023E-02 -9.41838700852E-02

   7   4   1   53 I     3.33899232015E-01 -1.92456625576E-02  4.05923925814E-01
   8   4   2   53 I    -3.33899232015E-01  4.80754337442E-01 -4.05923925814E-01

   9   5   1   53 I    -1.65922496889E-01 -1.31364703328E-02  4.30398502006E-01
  10   5   2   53 I     1.65922496889E-01  4.86863529667E-01 -4.30398502006E-01

  11   6   1   53 I    -3.34048736326E-01  4.86876682916E-01  6.95760088960E-02
  12   6   2   53 I     3.34048736326E-01 -1.31233170845E-02 -6.95760088960E-02

  13   7   1    8 O     3.32266067341E-01 -3.32663708889E-01  1.32663223481E-01
  14   7   2    8 O    -3.32266067341E-01  1.67336291111E-01 -1.32663223481E-01

  15   8   1    8 O     5.27938600731E-02 -3.21082692498E-01 -7.08562206164E-02
  16   8   2    8 O    -5.27938600731E-02  1.78917307502E-01  7.08562206164E-02

  17   9   1    8 O     1.32428134310E-01 -2.87496245894E-01  2.10736385204E-01
  18   9   2    8 O    -1.32428134310E-01  2.12503754106E-01 -2.10736385204E-01

  19  10   1    8 O     3.67571816690E-01  2.12601709714E-01  2.89302203788E-01
  20  10   2    8 O    -3.67571816690E-01 -2.87398290286E-01 -2.89302203788E-01

  21  11   1    8 O     1.67757701426E-01  1.67364175211E-01  3.67425094754E-01
  22  11   2    8 O    -1.67757701426E-01 -3.32635824789E-01 -3.67425094754E-01

  23  12   1    8 O     4.47208706423E-01  1.78985639782E-01 -4.29059826610E-01
  24  12   2    8 O    -4.47208706423E-01 -3.21014360218E-01  4.29059826610E-01

  25  13   1    8 O    -3.15763059161E-01  2.11140032666E-01  4.07958428376E-01
  26  13   2    8 O     3.15763059161E-01 -2.88859967334E-01 -4.07958428376E-01

  27  14   1    8 O    -2.44868525675E-02  1.89769793634E-01 -4.20548424072E-01
  28  14   2    8 O     2.44868525675E-02 -3.10230206366E-01  4.20548424072E-01

  29  15   1    8 O    -1.41257193980E-01  1.53873042219E-01  2.91238814773E-01
  30  15   2    8 O     1.41257193980E-01 -3.46126957780E-01 -2.91238814773E-01

  31  16   1    8 O    -3.58734260117E-01 -3.46198383691E-01  2.08745712324E-01
  32  16   2    8 O     3.58734260117E-01  1.53801616309E-01 -2.08745712324E-01

  33  17   1    8 O    -1.84196525431E-01 -2.88869507172E-01  9.20669221497E-02
  34  17   2    8 O     1.84196525431E-01  2.11130492828E-01 -9.20669221497E-02

  35  18   1    8 O    -4.75502500755E-01 -3.10237473469E-01 -7.94561641006E-02
  36  18   2    8 O     4.75502500755E-01  1.89762526531E-01  7.94561641006E-02

 NUMBER OF SYMMETRY OPERATORS         :    2
 *******************************************************************************
 * GEOMETRY EDITING - INPUT COORDINATES ARE GIVEN IN ANGSTROM         
 *******************************************************************************

 GEOMETRY NOW FULLY CONSISTENT WITH THE GROUP

 FRQFRQFRQFRQFRQFRQFRQFRQFRQFRQFRQFRQFRQFRQFRQFRQFRQFRQFRQFRQFRQFRQFRQFRQFRQFRQ

                       FREQUENCY CALCULATION

 INFORMATION **** INPFREQ **** NUMERICAL DERIVATIVE OF GRADIENT OPTION           2
 INFORMATION **** INPFREQ **** IR INTENSITIES EVALUATED THROUGH CPHF APPROACH
 INFORMATION **** INPFREQ **** NEW DEFAULT - IMPOSING ECKART CONDITIONS TO THE HESSIAN

 GCALCO - MAX INDICES DIRECT LATTICE VECTOR    11    24    11
 NO.OF VECTORS CREATED 6999 STARS 1824 RMAX   176.68609 BOHR

 GEOMETRY FOR WAVE FUNCTION - DIMENSIONALITY OF THE SYSTEM    3
 (NON PERIODIC DIRECTION: LATTICE PARAMETER FORMALLY SET TO 500)
 *******************************************************************************
 LATTICE PARAMETERS (ANGSTROMS AND DEGREES) - BOHR = 0.5291772083 ANGSTROM
 PRIMITIVE CELL - CENTRING CODE 1/0 VOLUME=   488.016733 - DENSITY  5.087 g/cm^3
         A              B              C           ALPHA      BETA       GAMMA 
    10.91605598     4.68776248    10.98887642    90.000000 119.789006  90.000000
 *******************************************************************************
 ATOMS IN THE ASYMMETRIC UNIT   18 - ATOMS IN THE UNIT CELL:   36
     ATOM                 X/A                 Y/B                 Z/C    
 *******************************************************************************
      1 T  12 MG   -4.903732918879E-01  4.271861541519E-01  2.557142422820E-01
      2 F  12 MG    4.903732918879E-01 -7.281384584810E-02 -2.557142422820E-01
      3 T  12 MG   -9.563724418721E-03 -7.252180568825E-02  2.442235950387E-01
      4 F  12 MG    9.563724418721E-03  4.274781943117E-01 -2.442235950387E-01
      5 T  53 I     1.661378258389E-01  4.806547198977E-01  9.418387008516E-02
      6 F  53 I    -1.661378258389E-01 -1.934528010230E-02 -9.418387008516E-02
      7 T  53 I     3.338992320153E-01 -1.924566255759E-02  4.059239258138E-01
      8 F  53 I    -3.338992320153E-01  4.807543374424E-01 -4.059239258138E-01
      9 T  53 I    -1.659224968894E-01 -1.313647033279E-02  4.303985020059E-01
     10 F  53 I     1.659224968894E-01  4.868635296672E-01 -4.303985020059E-01
     11 T  53 I    -3.340487363262E-01  4.868766829155E-01  6.957600889604E-02
     12 F  53 I     3.340487363262E-01 -1.312331708450E-02 -6.957600889604E-02
     13 T   8 O     3.322660673415E-01 -3.326637088886E-01  1.326632234814E-01
     14 F   8 O    -3.322660673415E-01  1.673362911114E-01 -1.326632234814E-01
     15 T   8 O     5.279386007310E-02 -3.210826924982E-01 -7.085622061642E-02
     16 F   8 O    -5.279386007310E-02  1.789173075018E-01  7.085622061642E-02
     17 T   8 O     1.324281343095E-01 -2.874962458938E-01  2.107363852037E-01
     18 F   8 O    -1.324281343095E-01  2.125037541062E-01 -2.107363852037E-01
     19 T   8 O     3.675718166901E-01  2.126017097143E-01  2.893022037881E-01
     20 F   8 O    -3.675718166901E-01 -2.873982902857E-01 -2.893022037881E-01
     21 T   8 O     1.677577014255E-01  1.673641752107E-01  3.674250947537E-01
     22 F   8 O    -1.677577014255E-01 -3.326358247893E-01 -3.674250947537E-01
     23 T   8 O     4.472087064227E-01  1.789856397823E-01 -4.290598266104E-01
     24 F   8 O    -4.472087064227E-01 -3.210143602177E-01  4.290598266104E-01
     25 T   8 O    -3.157630591615E-01  2.111400326659E-01  4.079584283763E-01
     26 F   8 O     3.157630591615E-01 -2.888599673341E-01 -4.079584283763E-01
     27 T   8 O    -2.448685256746E-02  1.897697936336E-01 -4.205484240716E-01
     28 F   8 O     2.448685256746E-02 -3.102302063664E-01  4.205484240716E-01
     29 T   8 O    -1.412571939797E-01  1.538730422195E-01  2.912388147726E-01
     30 F   8 O     1.412571939797E-01 -3.461269577805E-01 -2.912388147726E-01
     31 T   8 O    -3.587342601174E-01 -3.461983836910E-01  2.087457123235E-01
     32 F   8 O     3.587342601174E-01  1.538016163090E-01 -2.087457123235E-01
     33 T   8 O    -1.841965254314E-01 -2.888695071723E-01  9.206692214968E-02
     34 F   8 O     1.841965254314E-01  2.111304928277E-01 -9.206692214968E-02
     35 T   8 O    -4.755025007551E-01 -3.102374734688E-01 -7.945616410059E-02
     36 F   8 O     4.755025007551E-01  1.897625265312E-01  7.945616410059E-02

 T = ATOM BELONGING TO THE ASYMMETRIC UNIT

 ****    2 SYMMOPS - TRANSLATORS IN FRACTIONAL UNITS
 **** MATRICES AND TRANSLATORS IN THE CRYSTALLOGRAPHIC REFERENCE FRAME
   V INV                    ROTATION MATRICES                   TRANSLATORS
   1   1  1.00  0.00  0.00  0.00  1.00  0.00  0.00  0.00  1.00  0.00  0.00  0.00
   2   2 -1.00  0.00 -0.00 -0.00  1.00 -0.00  0.00  0.00 -1.00  0.00  0.50  0.00

 DIRECT LATTICE VECTORS CARTESIAN COMPONENTS (ANGSTROM)
          X                    Y                    Z
   0.109160559800E+02   0.668415650761E-15   0.000000000000E+00
   0.000000000000E+00   0.468776248000E+01   0.000000000000E+00
  -0.545935560385E+01   0.672874616699E-15   0.953681505351E+01


 CARTESIAN COORDINATES - PRIMITIVE CELL
 *******************************************************************************
 *      ATOM          X(ANGSTROM)         Y(ANGSTROM)         Z(ANGSTROM)
 *******************************************************************************
    1    12 MG    4.167078693070E+00  2.002547225409E+00  2.438699435191E+00
    2    12 MG   -4.167078693070E+00 -3.413340145912E-01 -2.438699435191E+00
    3    12 MG   -1.437701603298E+00 -3.399649996872E-01  2.329115257587E+00
    4    12 MG    1.437701603298E+00  2.003916240313E+00 -2.329115257587E+00
    5    53 I     1.299386568312E+00  2.253195161771E+00  8.982141500257E-01
    6    53 I    -1.299386568312E+00 -9.068607822865E-02 -8.982141500257E-01
    7    53 I     1.428779649232E+00 -9.021909484021E-02  3.871221406280E+00
    8    53 I    -1.428779649232E+00  2.253662145160E+00 -3.871221406280E+00
    9    53 I     1.298437865647E+00 -6.158065274569E-02 -5.432184140570E+00
   10    53 I    -1.298437865647E+00  2.282300587254E+00  5.432184140570E+00
   11    53 I    -4.026334879845E+00  2.282362246558E+00  6.635335290027E-01
   12    53 I     4.026334879845E+00 -6.151899344186E-02 -6.635335290027E-01
   13     8 O     2.902779278817E+00 -1.559448452986E+00  1.265184626744E+00
   14     8 O    -2.902779278817E+00  7.844327870144E-01 -1.265184626744E+00
   15     8 O     9.631300370478E-01 -1.505159398870E+00 -6.757426714093E-01
   16     8 O    -9.631300370478E-01  8.387218411296E-01  6.757426714093E-01
   17     8 O     2.951080619535E-01 -1.347714114642E+00  2.009753930732E+00
   18     8 O    -2.951080619535E-01  9.961671253582E-01 -2.009753930732E+00
   19     8 O     2.433030920204E+00  9.966263179825E-01  2.759021612099E+00
   20     8 O    -2.433030920204E+00 -1.347254922017E+00 -2.759021612099E+00
   21     8 O    -1.746517902001E-01  7.845635010489E-01  3.504065174683E+00
   22     8 O     1.746517902001E-01 -1.559317738951E+00 -3.504065174683E+00
   23     8 O    -3.691910537156E+00  8.390421666303E-01 -4.091864213273E+00
   24     8 O     3.691910537156E+00 -1.504839073370E+00  4.091864213273E+00
   25     8 O    -2.147217584697E-01  9.897743231572E-01 -5.646190972563E+00
   26     8 O     2.147217584697E-01 -1.354106916843E+00  5.646190972563E+00
   27     8 O     2.028623542243E+00  8.895957184329E-01 -4.010692541415E+00
   28     8 O    -2.028623542243E+00 -1.454285521567E+00  4.010692541415E+00
   29     8 O    -3.131947692546E+00  7.213202740000E-01  2.777490712889E+00
   30     8 O     3.131947692546E+00 -1.622560966000E+00 -2.777490712889E+00
   31     8 O    -5.055580339737E+00 -1.622895793703E+00  1.990769251642E+00
   32     8 O     5.055580339737E+00  7.209854462967E-01 -1.990769251642E+00
   33     8 O    -2.513325650297E+00 -1.354151637338E+00  8.780252090871E-01
   34     8 O     2.513325650297E+00  9.897296026616E-01 -8.780252090871E-01
   35     8 O    -4.756832462130E+00 -1.454319588017E+00 -7.577587418884E-01
   36     8 O     4.756832462130E+00  8.895616519830E-01  7.577587418884E-01

 *******************************************************************************
 STARTING BASIS SET HANDLING 
 *******************************************************************************

 Loading internal basis set: POB-TZVP-REV2       

 Please cite in your publication:
 D. Vilela Oliveira, M. F. Peintinger, J. Laun, and T. Bredow, J. Comput. Chem., 40 (2019)                                                                                                                                                                       
 J. Laun, and T. Bredow, J. Comput. Chem., 42 (2021)                                                                                                                                                                                                             
 J. Laun, and T. Bredow, J. Comput. Chem., 43 (2022)                                                                                                                                                                                                             

 *******************************************************************************
 *** PSEUDOPOTENTIAL INFORMATION ***
 *******************************************************************************

 ATOMIC NUMBER  53, NUCLEAR CHARGE 25.000,                      PSEUDOPOTENTIAL
   TYPE       EXPONENT      COEFF.    N      EXPONENT      COEFF.    N
  P0 TMS    40.0333760   49.9896490   0    17.3005760  281.0065560   0
             8.8517200   61.4167390   0
  P1 TMS    15.7201410   67.4162390   0    15.2082220  134.8076960   0
             8.2941860   14.5665480   0     7.7539490   28.9684220   0
  P2 TMS    13.8177510   35.5387560   0    13.5878050   53.3397590   0
             6.9476300    9.7164660   0     6.9600990   14.9775000   0
  P3 TMS    18.5229500  -20.1766180   0    18.2510350  -26.0880770   0
             7.5579010   -0.2204340   0     7.5974040   -0.2216460   0

 *******************************************************************************
 LOCAL ATOMIC FUNCTIONS BASIS SET
 *******************************************************************************
   ATOM   X(AU)   Y(AU)   Z(AU)  N. TYPE  EXPONENT  S COEF   P COEF   D/F/G COEF
 *******************************************************************************
   1 MG   7.875   3.784   4.608
                                  1 S  
                                         3.144E+04 6.091E-04 0.000E+00 0.000E+00
                                         4.716E+03 4.707E-03 0.000E+00 0.000E+00
                                         1.073E+03 2.414E-02 0.000E+00 0.000E+00
                                         3.036E+02 9.363E-02 0.000E+00 0.000E+00
                                         9.863E+01 2.665E-01 0.000E+00 0.000E+00
                                         3.494E+01 4.789E-01 0.000E+00 0.000E+00
                                         1.286E+01 3.370E-01 0.000E+00 0.000E+00
                                  2 S  
                                         6.488E+01 1.918E-02 0.000E+00 0.000E+00
                                         1.973E+01 9.091E-02 0.000E+00 0.000E+00
                                         2.895E+00-3.956E-01 0.000E+00 0.000E+00
                                  3 S  
                                         1.196E+00 1.683E+00 0.000E+00 0.000E+00
                                         5.433E-01 5.214E-01 0.000E+00 0.000E+00
                                  4 S  
                                         8.347E-01 1.000E+00 0.000E+00 0.000E+00
                                  5 S  
                                         1.451E-01 1.000E+00 0.000E+00 0.000E+00
                           6-     8 P  
                                         1.799E+02 0.000E+00 5.380E-03 0.000E+00
                                         4.212E+01 0.000E+00 3.932E-02 0.000E+00
                                         1.312E+01 0.000E+00 1.574E-01 0.000E+00
                                         4.626E+00 0.000E+00 3.592E-01 0.000E+00
                                         1.670E+00 0.000E+00 4.553E-01 0.000E+00
                           9-    11 P  
                                         5.663E-01 0.000E+00 1.000E+00 0.000E+00
                          12-    14 P  
                                         1.881E-01 0.000E+00 1.000E+00 0.000E+00
                          15-    19 D  
                                         2.936E-01 0.000E+00 0.000E+00 1.000E+00
   2 MG  -7.875  -0.645  -4.608
   3 MG  -2.717  -0.642   4.401
   4 MG   2.717   3.787  -4.401
   5 I    2.455   4.258   1.697
                                 77 S  
                                         5.900E+03 2.419E-04 0.000E+00 0.000E+00
                                         8.985E+02 1.547E-03 0.000E+00 0.000E+00
                                         2.004E+02 4.284E-03 0.000E+00 0.000E+00
                                         3.142E+01-3.942E-02 0.000E+00 0.000E+00
                                         1.565E+01 9.609E-01 0.000E+00 0.000E+00
                                 78 S  
                                         1.182E+01 7.596E-01 0.000E+00 0.000E+00
                                         6.461E+00 4.250E-01 0.000E+00 0.000E+00
                                 79 S  
                                         2.221E+00 7.013E-01 0.000E+00 0.000E+00
                                         1.042E+00 2.987E-01 0.000E+00 0.000E+00
                                 80 S  
                                         2.321E-01 1.000E+00 0.000E+00 0.000E+00
                          81-    83 P  
                                         1.973E+02 0.000E+00 7.395E-04 0.000E+00
                                         2.006E+01 0.000E+00 6.617E-02 0.000E+00
                                         9.763E+00 0.000E+00-2.855E-01 0.000E+00
                          84-    86 P  
                                         1.298E+01 0.000E+00-4.910E-02 0.000E+00
                                         3.620E+00 0.000E+00 3.891E-01 0.000E+00
                                         2.023E+00 0.000E+00 6.561E-01 0.000E+00
                                         1.037E+00 0.000E+00 3.180E-01 0.000E+00
                          87-    89 P  
                                         3.996E-01 0.000E+00 1.000E+00 0.000E+00
                          90-    92 P  
                                         1.222E-01 0.000E+00 1.000E+00 0.000E+00
                          93-    97 D  
                                         1.191E+02 0.000E+00 0.000E+00 8.260E-04
                                         3.340E+01 0.000E+00 0.000E+00 6.838E-03
                                         1.781E+01 0.000E+00 0.000E+00-1.031E-02
                                         4.899E+00 0.000E+00 0.000E+00 2.267E-01
                                         2.452E+00 0.000E+00 0.000E+00 4.418E-01
                                         1.182E+00 0.000E+00 0.000E+00 3.678E-01
                          98-   102 D  
                                         1.004E+00 0.000E+00 0.000E+00 1.000E+00
                         103-   107 D  
                                         5.278E-01 0.000E+00 0.000E+00 1.000E+00
                         108-   112 D  
                                         2.010E-01 0.000E+00 0.000E+00 1.000E+00
   6 I   -2.455  -0.171  -1.697
   7 I    2.700  -0.170   7.316
   8 I   -2.700   4.259  -7.316
   9 I    2.454  -0.116 -10.265
  10 I   -2.454   4.313  10.265
  11 I   -7.609   4.313   1.254
  12 I    7.609  -0.116  -1.254
  13 O    5.485  -2.947   2.391
                                365 S  
                                         2.703E+04 2.173E-04 0.000E+00 0.000E+00
                                         4.052E+03 1.684E-03 0.000E+00 0.000E+00
                                         9.223E+02 8.740E-03 0.000E+00 0.000E+00
                                         2.612E+02 3.524E-02 0.000E+00 0.000E+00
                                         8.535E+01 1.115E-01 0.000E+00 0.000E+00
                                         3.104E+01 2.559E-01 0.000E+00 0.000E+00
                                366 S  
                                         1.226E+01 3.977E-01 0.000E+00 0.000E+00
                                         4.999E+00 2.463E-01 0.000E+00 0.000E+00
                                367 S  
                                         1.099E+00 1.000E+00 0.000E+00 0.000E+00
                                368 S  
                                         3.566E-01 1.000E+00 0.000E+00 0.000E+00
                         369-   371 P  
                                         6.327E+01 0.000E+00 6.069E-03 0.000E+00
                                         1.463E+01 0.000E+00 4.191E-02 0.000E+00
                                         4.450E+00 0.000E+00 1.615E-01 0.000E+00
                                         1.528E+00 0.000E+00 3.571E-01 0.000E+00
                         372-   374 P  
                                         5.490E-01 0.000E+00 1.000E+00 0.000E+00
                         375-   377 P  
                                         1.859E-01 0.000E+00 1.000E+00 0.000E+00
                         378-   382 D  
                                         4.535E-01 0.000E+00 0.000E+00 1.000E+00
  14 O   -5.485   1.482  -2.391
  15 O    1.820  -2.844  -1.277
  16 O   -1.820   1.585   1.277
  17 O    0.558  -2.547   3.798
  18 O   -0.558   1.882  -3.798
  19 O    4.598   1.883   5.214
  20 O   -4.598  -2.546  -5.214
  21 O   -0.330   1.483   6.622
  22 O    0.330  -2.947  -6.622
  23 O   -6.977   1.586  -7.733
  24 O    6.977  -2.844   7.733
  25 O   -0.406   1.870 -10.670
  26 O    0.406  -2.559  10.670
  27 O    3.834   1.681  -7.579
  28 O   -3.834  -2.748   7.579
  29 O   -5.919   1.363   5.249
  30 O    5.919  -3.066  -5.249
  31 O   -9.554  -3.067   3.762
  32 O    9.554   1.362  -3.762
  33 O   -4.749  -2.559   1.659
  34 O    4.749   1.870  -1.659
  35 O   -8.989  -2.748  -1.432
  36 O    8.989   1.681   1.432

 *******************************************************************************
 FINISHED BASIS SET HANDLING 
 *******************************************************************************

 INFORMATION **** SET_MPP **** PCRYSTAL CALCULATION
 INFORMATION **** READM2 **** NEW DEFAULT: FOCK/KS MATRIX MIXING SET TO 30 %
 INFORMATION **** READM2 **** NEW DEFAULT: FULL DIRECT SCF MODE
 INFORMATION **** READM2 **** NEW DEFAULT: COULOMB BIPOLAR BUFFER SET TO 32 Mb
 INFORMATION **** READM2 **** NEW DEFAULT: EXCHANGE BIPOLAR BUFFER SET TO 32 Mb

 *******************************************************************************
 NEW DEFAULT: DFT INTEGRATION GRID INCREASED TO XLGRID
 NEW DEFAULT: DIIS ACCELERATOR ACTIVE
 USE KEYWORD NODIIS TO TURN IT OFF
 *******************************************************************************

 INFORMATION **** DFTD3_INPUT **** PERFORM LATEST DISPERSION CORRECTION DFT-D3(BJ) WITH AUTOMATIC PARAMETER SETUP
 PLEASE CITE:
 (1) DFT-D3 Reference
  S. Grimme, J. Antony, S. Ehrlich, and H. Krieg, J. Chem. Phys. 132 (2010), 154104
 (2) BJ-Damping Reference
  S. Grimme, S. Ehrlich, and L. Goerigk, J. Comput. Chem. 32 (2011), 1456-1465
 (3) General DFT-D Review
  S. Grimme, A. Hansen, J. G. Brandenburg, and C. Bannwarth,
  Chem. Rev. 116 (2016), 5105-5154

 INFORMATION **** TOLINTEG **** COULOMB AND EXCHANGE SERIES TOLERANCES MODIFIED
 INFORMATION **** TOLDEE **** SCF TOL ON TOTAL ENERGY SET TO           9
 WARNING **** READM2 **** PROBABLE LOSS IN FREQCALC ACCURACY; SCF TOL LT          10
 *******************************************************************************
 N. OF ATOMS PER CELL        36  COULOMB OVERLAP TOL         (T1) 10**   -9
 NUMBER OF SHELLS           324  COULOMB PENETRATION TOL     (T2) 10**   -9
 NUMBER OF AO               796  EXCHANGE OVERLAP TOL        (T3) 10**   -9
 N. OF ELECTRONS PER CELL   440  EXCHANGE PSEUDO OVP (F(G))  (T4) 10**   -9
 CORE ELECTRONS PER CELL     88  EXCHANGE PSEUDO OVP (P(G))  (T5) 10**  -27
 N. OF SYMMETRY OPERATORS     2  POLE ORDER IN MONO ZONE                  4
 *******************************************************************************
 TYPE OF CALCULATION :  RESTRICTED CLOSED SHELL
 KOHN-SHAM HAMILTONIAN

 (EXCHANGE)[CORRELATION] FUNCTIONAL:(PERDEW-BURKE-ERNZERHOF)[PERDEW-BURKE-ERNZERHOF]


 HYBRID EXCHANGE - PERCENTAGE OF FOCK EXCHANGE    25.0000
 CORE  PSEUDO POTENTIAL         TOL. ON PSEUDO              (TP) 10**- 6

 CAPPA:IS1  6;IS2  6;IS3  6; K PTS MONK NET  80; SYMMOPS:K SPACE   4;G SPACE   2

 *******************************************************************************
 MAX NUMBER OF SCF CYCLES      50  CONVERGENCE ON DELTAP        10**-19
 WEIGHT OF F(I) IN F(I+1)      30% CONVERGENCE ON ENERGY        10**- 9
 SHRINK. FACT.(MONKH.)    6  6  6  NUMBER OF K POINTS IN THE IBZ     80
 SHRINKING FACTOR(GILAT NET)    6  NUMBER OF K POINTS(GILAT NET)     80
 *******************************************************************************
 *** K POINTS COORDINATES (OBLIQUE COORDINATES IN UNITS OF IS =  6)
   1-R(  0  0  0)   2-C(  1  0  0)   3-C(  2  0  0)   4-R(  3  0  0)
   5-C(  0  1  0)   6-C(  1  1  0)   7-C(  2  1  0)   8-C(  3  1  0)
   9-C(  0  2  0)  10-C(  1  2  0)  11-C(  2  2  0)  12-C(  3  2  0)
  13-R(  0  3  0)  14-C(  1  3  0)  15-C(  2  3  0)  16-R(  3  3  0)
  17-C(  0  0  1)  18-C(  1  0  1)  19-C(  2  0  1)  20-C(  3  0  1)
  21-C(  4  0  1)  22-C(  5  0  1)  23-C(  0  1  1)  24-C(  1  1  1)
  25-C(  2  1  1)  26-C(  3  1  1)  27-C(  4  1  1)  28-C(  5  1  1)
  29-C(  0  2  1)  30-C(  1  2  1)  31-C(  2  2  1)  32-C(  3  2  1)
  33-C(  4  2  1)  34-C(  5  2  1)  35-C(  0  3  1)  36-C(  1  3  1)
  37-C(  2  3  1)  38-C(  3  3  1)  39-C(  4  3  1)  40-C(  5  3  1)
  41-C(  0  0  2)  42-C(  1  0  2)  43-C(  2  0  2)  44-C(  3  0  2)
  45-C(  4  0  2)  46-C(  5  0  2)  47-C(  0  1  2)  48-C(  1  1  2)
  49-C(  2  1  2)  50-C(  3  1  2)  51-C(  4  1  2)  52-C(  5  1  2)
  53-C(  0  2  2)  54-C(  1  2  2)  55-C(  2  2  2)  56-C(  3  2  2)
  57-C(  4  2  2)  58-C(  5  2  2)  59-C(  0  3  2)  60-C(  1  3  2)
  61-C(  2  3  2)  62-C(  3  3  2)  63-C(  4  3  2)  64-C(  5  3  2)
  65-R(  0  0  3)  66-C(  1  0  3)  67-C(  2  0  3)  68-R(  3  0  3)
  69-C(  0  1  3)  70-C(  1  1  3)  71-C(  2  1  3)  72-C(  3  1  3)
  73-C(  0  2  3)  74-C(  1  2  3)  75-C(  2  2  3)  76-C(  3  2  3)
  77-R(  0  3  3)  78-C(  1  3  3)  79-C(  2  3  3)  80-R(  3  3  3)

 DIRECT LATTICE VECTORS COMPON. (A.U.)     RECIP. LATTICE VECTORS COMPON. (A.U.) 
        X            Y            Z              X            Y            Z
   20.6283563    0.0000000    0.0000000      0.3045897   -0.0000000    0.1743626
    0.0000000    8.8585873    0.0000000     -0.0000000    0.7092762   -0.0000000
  -10.3166870    0.0000000   18.0219686      0.0000000    0.0000000    0.3486403

 DISK SPACE FOR EIGENVECTORS (FTN 10)    96309632 REALS

 SYMMETRY ADAPTION OF THE BLOCH FUNCTIONS ENABLED
 TTTTTTTTTTTTTTTTTTTTTTTTTTTTTT gordsh1     TELAPSE        5.33 TCPU        2.49

 MATRIX SIZE: P(G) 4272168, F(G)  404130, P(G) IRR 1078299, F(G) IRR  204143
 MAX G-VECTOR INDEX FOR 1- AND 2-ELECTRON INTEGRALS 159

 TTTTTTTTTTTTTTTTTTTTTTTTTTTTTT INPUT       TELAPSE        5.37 TCPU        2.52

 NEIGHBORS OF THE NON-EQUIVALENT ATOMS

 N = NUMBER OF NEIGHBORS AT DISTANCE R
    ATOM  N     R/ANG      R/AU   NEIGHBORS (ATOM LABELS AND CELL INDICES)
   1 MG   1     2.0301     3.8364   19 O    0 0 0
   1 MG   1     2.0486     3.8713   31 O    1 1 0
   1 MG   1     2.0598     3.8925   13 O    0 1 0
   1 MG   1     2.0710     3.9137   25 O    1 0 1
   1 MG   1     2.0862     3.9423   24 O    0 1 0
   1 MG   1     2.1005     3.9694   36 O    0 0 0

   3 MG   1     2.0298     3.8358   17 O    0 0 0
   3 MG   1     2.0489     3.8718   29 O    0 0 0
   3 MG   1     2.0592     3.8914   21 O    0 0 0
   3 MG   1     2.0715     3.9146   33 O    0 0 0
   3 MG   1     2.0852     3.9405   16 O    0 0 0
   3 MG   1     2.1020     3.9723   28 O    0 0 0

   5 I    1     1.8508     3.4974   17 O    0 1 0
   5 I    1     1.8585     3.5122   15 O    0 1 0
   5 I    1     1.8632     3.5209   13 O    0 1 0
   5 I    1     2.4950     4.7149   34 O    0 0 0
   5 I    1     2.5153     4.7532   19 O    0 0 0
   5 I    1     2.6775     5.0598   16 O    0 0 0

   7 I    1     1.8511     3.4982   19 O    0 0 0
   7 I    1     1.8582     3.5116   23 O    1 0 1
   7 I    1     1.8631     3.5207   21 O    0 0 0
   7 I    1     2.4944     4.7137   26 O    0 0 0
   7 I    1     2.5163     4.7550   17 O    0 0 0
   7 I    1     2.6780     5.0607   24 O    0 0 0

   9 I    1     1.8528     3.5014   29 O    0 0-1
   9 I    1     1.8549     3.5053   25 O    0 0 0
   9 I    1     1.8597     3.5144   27 O    0 0 0
   9 I    1     2.5486     4.8161   28 O    0 0-1
   9 I    1     2.6877     5.0790   22 O    0 0 0
   9 I    1     2.7761     5.2460   31 O    0 0-1

  11 I    1     1.8529     3.5015   31 O    0 1 0
  11 I    1     1.8548     3.5051   33 O    0 1 0
  11 I    1     1.8596     3.5142   35 O    0 1 0
  11 I    1     2.5491     4.8171   36 O   -1 0 0
  11 I    1     2.6881     5.0799   14 O    0 0 0
  11 I    1     2.7759     5.2457   29 O    0 0 0

  13 O    1     1.8632     3.5209    5 I    0-1 0
  13 O    1     2.0598     3.8925    1 MG   0-1 0
  13 O    1     2.6451     4.9984   19 O    0-1 0
  13 O    1     2.6881     5.0799   12 I    0 0 0
  13 O    1     2.7201     5.1403   17 O    0 0 0
  13 O    1     2.7445     5.1864   15 O    0 0 0

  15 O    1     1.8585     3.5122    5 I    0-1 0
  15 O    1     2.0852     3.9405    4 MG   0-1 0
  15 O    1     2.6775     5.0598    6 I    0 0 0
  15 O    1     2.6931     5.0892   34 O    0-1 0
  15 O    1     2.7445     5.1864   13 O    0 0 0
  15 O    1     2.7718     5.2380   17 O    0 0 0

  17 O    1     1.8508     3.4974    5 I    0-1 0
  17 O    1     2.0298     3.8358    3 MG   0 0 0
  17 O    1     2.5163     4.7550    7 I    0 0 0
  17 O    1     2.6458     4.9998   21 O    0 0 0
  17 O    1     2.7201     5.1403   13 O    0 0 0
  17 O    1     2.7718     5.2380   15 O    0 0 0

  19 O    1     1.8511     3.4982    7 I    0 0 0
  19 O    1     2.0301     3.8364    1 MG   0 0 0
  19 O    1     2.5153     4.7532    5 I    0 0 0
  19 O    1     2.6451     4.9984   13 O    0 1 0
  19 O    1     2.7203     5.1406   21 O    0 0 0
  19 O    1     2.7723     5.2389   23 O    1 0 1

  21 O    1     1.8631     3.5207    7 I    0 0 0
  21 O    1     2.0592     3.8914    3 MG   0 0 0
  21 O    1     2.6458     4.9998   17 O    0 0 0
  21 O    1     2.6877     5.0790   10 I    0 0 0
  21 O    1     2.7203     5.1406   19 O    0 0 0
  21 O    1     2.7443     5.1861   23 O    1 0 1

  23 O    1     1.8582     3.5116    7 I   -1 0-1
  23 O    1     2.0862     3.9423    2 MG   0 0 0
  23 O    1     2.6780     5.0607    8 I    0 0 0
  23 O    1     2.6932     5.0893   26 O   -1 0-1
  23 O    1     2.7443     5.1861   21 O   -1 0-1
  23 O    1     2.7723     5.2389   19 O   -1 0-1

  25 O    1     1.8549     3.5053    9 I    0 0 0
  25 O    1     2.0710     3.9137    1 MG  -1 0-1
  25 O    1     2.4944     4.7137    8 I    0 0 0
  25 O    1     2.6932     5.0893   24 O   -1 1-1
  25 O    1     2.7780     5.2497   27 O    0 0 0
  25 O    1     2.7881     5.2688   29 O    0 0-1

  27 O    1     1.8597     3.5144    9 I    0 0 0
  27 O    1     2.1020     3.9723    4 MG   0 0 0
  27 O    1     2.5486     4.8161   10 I    0 0-1
  27 O    1     2.7334     5.1653   30 O    0 1 0
  27 O    1     2.7699     5.2344   29 O    0 0-1
  27 O    1     2.7780     5.2497   25 O    0 0 0

  29 O    1     1.8528     3.5014    9 I    0 0 1
  29 O    1     2.0489     3.8718    3 MG   0 0 0
  29 O    1     2.7334     5.1653   28 O    0 0 0
  29 O    1     2.7699     5.2344   27 O    0 0 1
  29 O    1     2.7759     5.2457   11 I    0 0 0
  29 O    1     2.7881     5.2688   25 O    0 0 1

  31 O    1     1.8529     3.5015   11 I    0-1 0
  31 O    1     2.0486     3.8713    1 MG  -1-1 0
  31 O    1     2.7332     5.1650   36 O   -1-1 0
  31 O    1     2.7699     5.2343   35 O    0 0 0
  31 O    1     2.7761     5.2460    9 I    0 0 1
  31 O    1     2.7881     5.2687   33 O    0 0 0

  33 O    1     1.8548     3.5051   11 I    0-1 0
  33 O    1     2.0715     3.9146    3 MG   0 0 0
  33 O    1     2.4950     4.7149    6 I    0 0 0
  33 O    1     2.6931     5.0892   16 O    0 0 0
  33 O    1     2.7783     5.2503   35 O    0 0 0
  33 O    1     2.7881     5.2687   31 O    0 0 0

  35 O    1     1.8596     3.5142   11 I    0-1 0
  35 O    1     2.1005     3.9694    2 MG   0 0 0
  35 O    1     2.5491     4.8171   12 I   -1 0 0
  35 O    1     2.7332     5.1650   32 O   -1 0 0
  35 O    1     2.7699     5.2343   31 O    0 0 0
  35 O    1     2.7783     5.2503   33 O    0 0 0


 SYMMETRY ALLOWED INTERNAL DEGREE(S) OF FREEDOM:  53
 TTTTTTTTTTTTTTTTTTTTTTTTTTTTTT SYMM        TELAPSE        5.41 TCPU        2.57
 TTTTTTTTTTTTTTTTTTTTTTTTTTTTTT INT_SCREEN  TELAPSE        5.46 TCPU        2.61
 WARNING **** EXCBUF **** EXCH. BIPO BUFFER TOO SMALL - TO AVOID I/O SET EXCHSIZE =     7429374

 DFT PARAMETERS

     ATOM       ELECTRONS   NET CHARGE   R(ANGSTROM)
   1  12  MG     12.0000      0.0000     1.60000000
   5  53  I      25.0000      0.0000     1.33000000
  13   8  O       8.0000      0.0000     0.74000000

 SIZE OF GRID=    2836072
 TTTTTTTTTTTTTTTTTTTTTTTTTTTTTT MAKE_GRID2  TELAPSE       16.02 TCPU       13.16
 BECKE WEIGHT FUNCTION
 RADSAFE =     2.00
 TOLERANCES - DENSITY:10**- 6; POTENTIAL:10**- 9; GRID WGT:10**-14

 RADIAL INTEGRATION  - INTERVALS (POINTS,UPPER LIMIT):            1(300,  4.0*R)

 ANGULAR INTEGRATION - INTERVALS (ACCURACY LEVEL [N. POINTS] UPPER LIMIT):
  1(  6[ 146]   0.2)  2( 11[ 302]   0.5)  3( 14[ 590]   0.9)  4( 18[1454]   3.5)
  5( 14[ 590]9999.0)
 TTTTTTTTTTTTTTTTTTTTTTTTTTTTTT INT_CALC    TELAPSE       16.05 TCPU       13.20
 EEEEEEEEEE INT_CALC TERMINATION  DATE 05 01 2025 TIME 21:27:32.6

 *******************************************************************************
 Mg(IO3)2 P21                                                                    
 CRYSTAL - SCF - TYPE OF CALCULATION :  RESTRICTED CLOSED SHELL
 *******************************************************************************

 CAPPA:IS1  6;IS2  6;IS3  6; K PTS MONK NET  80; SYMMOPS:K SPACE   4;G SPACE   2

 TTTTTTTTTTTTTTTTTTTTTTTTTTTTTT SDIK        TELAPSE       17.04 TCPU       14.18

 AAAAAAAAAAAAAAAAAAAAAAAAAAAAAAAAAAAAAAAAAAAAAAAAAAAAAAAAAAAAAAAAAAAAAAAAAAAAAAA
         ATOMIC WAVEFUNCTION(S)


 NUCLEAR CHARGE 12.0  SYMMETRY SPECIES            S    P
 N. ELECTRONS   12.0  NUMBER OF PRIMITIVE GTOS   14    7
                      NUMBER OF CONTRACTED GTOS   5    3
                      NUMBER OF CLOSED SHELLS     3    1
                      OPEN SHELL OCCUPATION       0    0

  ZNUC  SCFIT    TOTAL HF ENERGY   KINETIC ENERGY   VIRIAL THEOREM             ACCURACY
  12.0     8    -1.994903813E+02  2.003482110E+02 -1.995718306E+00  4.2E-06

 NUCLEAR CHARGE 25.0  SYMMETRY SPECIES            S    P    D
 N. ELECTRONS   25.0  NUMBER OF PRIMITIVE GTOS   10    9    9
                      NUMBER OF CONTRACTED GTOS   4    4    4
                      NUMBER OF CLOSED SHELLS     2    1    1
                      OPEN SHELL OCCUPATION       0    5    0

  ZNUC  SCFIT    TOTAL HF ENERGY   KINETIC ENERGY   VIRIAL THEOREM             ACCURACY
  25.0    10    -2.945672222E+02  1.114753143E+02 -3.642443522E+00  1.4E-06

 NUCLEAR CHARGE  8.0  SYMMETRY SPECIES            S    P
 N. ELECTRONS    8.0  NUMBER OF PRIMITIVE GTOS   10    6
                      NUMBER OF CONTRACTED GTOS   4    3
                      NUMBER OF CLOSED SHELLS     2    0
                      OPEN SHELL OCCUPATION       0    4

  ZNUC  SCFIT    TOTAL HF ENERGY   KINETIC ENERGY   VIRIAL THEOREM             ACCURACY
   8.0    13    -7.480300557E+01  7.484348361E+01 -1.999459164E+00  4.9E-06

 AAAAAAAAAAAAAAAAAAAAAAAAAAAAAAAAAAAAAAAAAAAAAAAAAAAAAAAAAAAAAAAAAAAAAAAAAAAAAAA

 TTTTTTTTTTTTTTTTTTTTTTTTTTTTTT MOQGAD      TELAPSE       17.09 TCPU       14.23
 TTTTTTTTTTTTTTTTTTTTTTTTTTTTTT SHELLXN     TELAPSE       42.70 TCPU       39.82
 TTTTTTTTTTTTTTTTTTTTTTTTTTTTTT MONMO3      TELAPSE       43.03 TCPU       40.16
 NUMERICALLY INTEGRATED DENSITY    439.9999842993
 TTTTTTTTTTTTTTTTTTTTTTTTTTTTTT NUMDFT      TELAPSE       46.80 TCPU       43.91
 CYC   0 ETOT(AU) -4.973743130395E+03 DETOT -4.97E+03 tst  0.00E+00 PX  1.00E+00
 TTTTTTTTTTTTTTTTTTTTTTTTTTTTTT DIIS        TELAPSE       46.86 TCPU       43.97
 TTTTTTTTTTTTTTTTTTTTTTTTTTTTTT FDIK        TELAPSE       56.74 TCPU       53.83
 INSULATING STATE
 TOP OF VALENCE BANDS -    BAND    220; K   68; EIG -2.9139859E-01 AU
 TOP OF VALENCE BANDS -    BAND    220; K    1; EIG -2.9716303E-01 AU
 BOTTOM OF VIRTUAL BANDS - BAND    221; K   43; EIG -1.1349178E-01 AU
 INDIRECT ENERGY BAND GAP:   4.8411 eV
 BOTTOM OF VIRTUAL BANDS - BAND    221; K    1; EIG -1.0475467E-01 AU
 TTTTTTTTTTTTTTTTTTTTTTTTTTTTTT PDIG        TELAPSE       57.26 TCPU       54.34
 TTTTTTTTTTTTTTTTTTTTTTTTTTTTTT MOQGAD      TELAPSE       57.27 TCPU       54.36
 TTTTTTTTTTTTTTTTTTTTTTTTTTTTTT SHELLXN     TELAPSE       83.95 TCPU       80.96
 TTTTTTTTTTTTTTTTTTTTTTTTTTTTTT MONMO3      TELAPSE       84.28 TCPU       81.29
 NUMERICALLY INTEGRATED DENSITY    439.9999781807
 TTTTTTTTTTTTTTTTTTTTTTTTTTTTTT NUMDFT      TELAPSE       88.06 TCPU       85.07
 CYC   1 ETOT(AU) -4.966797661589E+03 DETOT  6.95E+00 tst  0.00E+00 PX  1.00E+00
 TTTTTTTTTTTTTTTTTTTTTTTTTTTTTT DIIS        TELAPSE       88.13 TCPU       85.13
 DIIS TEST: 0.11189E+02 AT SCF   CYCLE   1 - MIX   30 %
 TTTTTTTTTTTTTTTTTTTTTTTTTTTTTT FDIK        TELAPSE       90.23 TCPU       87.22
 INSULATING STATE
 TOP OF VALENCE BANDS -    BAND    220; K   20; EIG -1.4075019E-01 AU
 TOP OF VALENCE BANDS -    BAND    220; K    1; EIG -1.4963000E-01 AU
 BOTTOM OF VIRTUAL BANDS - BAND    221; K   43; EIG -3.0689072E-02 AU
 INDIRECT ENERGY BAND GAP:   2.9949 eV
 BOTTOM OF VIRTUAL BANDS - BAND    221; K    1; EIG -1.9521611E-02 AU
 TTTTTTTTTTTTTTTTTTTTTTTTTTTTTT PDIG        TELAPSE       90.76 TCPU       87.75
 TTTTTTTTTTTTTTTTTTTTTTTTTTTTTT MOQGAD      TELAPSE       90.77 TCPU       87.76
 TTTTTTTTTTTTTTTTTTTTTTTTTTTTTT SHELLXN     TELAPSE      117.50 TCPU      114.44
 TTTTTTTTTTTTTTTTTTTTTTTTTTTTTT MONMO3      TELAPSE      117.83 TCPU      114.76
 NUMERICALLY INTEGRATED DENSITY    439.9999744695
 TTTTTTTTTTTTTTTTTTTTTTTTTTTTTT NUMDFT      TELAPSE      121.69 TCPU      118.62
 CYC   2 ETOT(AU) -4.967023558785E+03 DETOT -2.26E-01 tst  1.84E-02 PX  6.30E-01
 TTTTTTTTTTTTTTTTTTTTTTTTTTTTTT DIIS        TELAPSE      121.76 TCPU      118.68
 DIIS TEST: 0.10119E+02 AT SCF   CYCLE   2 - DIIS ACTIVE - HISTORY:     2 CYCLES
 TTTTTTTTTTTTTTTTTTTTTTTTTTTTTT FDIK        TELAPSE      123.76 TCPU      120.63
 INSULATING STATE
 TOP OF VALENCE BANDS -    BAND    220; K   19; EIG -2.1109752E-01 AU
 TOP OF VALENCE BANDS -    BAND    220; K    1; EIG -2.1536925E-01 AU
 BOTTOM OF VIRTUAL BANDS - BAND    221; K   43; EIG -3.7846829E-02 AU
 INDIRECT ENERGY BAND GAP:   4.7144 eV
 BOTTOM OF VIRTUAL BANDS - BAND    221; K    1; EIG -2.8510389E-02 AU
 TTTTTTTTTTTTTTTTTTTTTTTTTTTTTT PDIG        TELAPSE      124.29 TCPU      121.15
 TTTTTTTTTTTTTTTTTTTTTTTTTTTTTT MOQGAD      TELAPSE      124.30 TCPU      121.16
 TTTTTTTTTTTTTTTTTTTTTTTTTTTTTT SHELLXN     TELAPSE      151.03 TCPU      147.86
 TTTTTTTTTTTTTTTTTTTTTTTTTTTTTT MONMO3      TELAPSE      151.37 TCPU      148.19
 NUMERICALLY INTEGRATED DENSITY    439.9999766723
 TTTTTTTTTTTTTTTTTTTTTTTTTTTTTT NUMDFT      TELAPSE      155.09 TCPU      151.91
 CYC   3 ETOT(AU) -4.968791794147E+03 DETOT -1.77E+00 tst  4.60E-03 PX  1.58E-01
 TTTTTTTTTTTTTTTTTTTTTTTTTTTTTT DIIS        TELAPSE      155.16 TCPU      151.97
 DIIS TEST: 0.12085E+00 AT SCF   CYCLE   3 - DIIS ACTIVE - HISTORY:     3 CYCLES
 TTTTTTTTTTTTTTTTTTTTTTTTTTTTTT FDIK        TELAPSE      157.03 TCPU      153.84
 INSULATING STATE
 TOP OF VALENCE BANDS -    BAND    220; K   68; EIG -2.1357171E-01 AU
 TOP OF VALENCE BANDS -    BAND    220; K    1; EIG -2.1992630E-01 AU
 BOTTOM OF VIRTUAL BANDS - BAND    221; K   43; EIG -3.2952383E-02 AU
 INDIRECT ENERGY BAND GAP:   4.9149 eV
 BOTTOM OF VIRTUAL BANDS - BAND    221; K    1; EIG -2.3311008E-02 AU
 TTTTTTTTTTTTTTTTTTTTTTTTTTTTTT PDIG        TELAPSE      157.56 TCPU      154.37
 TTTTTTTTTTTTTTTTTTTTTTTTTTTTTT MOQGAD      TELAPSE      157.57 TCPU      154.38
 TTTTTTTTTTTTTTTTTTTTTTTTTTTTTT SHELLXN     TELAPSE      184.30 TCPU      181.05
 TTTTTTTTTTTTTTTTTTTTTTTTTTTTTT MONMO3      TELAPSE      184.63 TCPU      181.38
 NUMERICALLY INTEGRATED DENSITY    439.9999781002
 TTTTTTTTTTTTTTTTTTTTTTTTTTTTTT NUMDFT      TELAPSE      188.32 TCPU      185.07
 CYC   4 ETOT(AU) -4.968799837040E+03 DETOT -8.04E-03 tst  1.44E-04 PX  2.32E-02
 TTTTTTTTTTTTTTTTTTTTTTTTTTTTTT DIIS        TELAPSE      188.39 TCPU      185.13
 DIIS TEST: 0.83098E-01 AT SCF   CYCLE   4 - DIIS ACTIVE - HISTORY:     4 CYCLES
 TTTTTTTTTTTTTTTTTTTTTTTTTTTTTT FDIK        TELAPSE      190.18 TCPU      186.93
 INSULATING STATE
 TOP OF VALENCE BANDS -    BAND    220; K   43; EIG -2.1183775E-01 AU
 TOP OF VALENCE BANDS -    BAND    220; K    1; EIG -2.1817182E-01 AU
 BOTTOM OF VIRTUAL BANDS - BAND    221; K   43; EIG -3.1058656E-02 AU
 DIRECT ENERGY BAND GAP:   4.9193 eV
 BOTTOM OF VIRTUAL BANDS - BAND    221; K    1; EIG -2.1371419E-02 AU
 TTTTTTTTTTTTTTTTTTTTTTTTTTTTTT PDIG        TELAPSE      190.71 TCPU      187.45
 TTTTTTTTTTTTTTTTTTTTTTTTTTTTTT MOQGAD      TELAPSE      190.74 TCPU      187.47
 TTTTTTTTTTTTTTTTTTTTTTTTTTTTTT SHELLXN     TELAPSE      217.51 TCPU      214.17
 TTTTTTTTTTTTTTTTTTTTTTTTTTTTTT MONMO3      TELAPSE      217.84 TCPU      214.50
 NUMERICALLY INTEGRATED DENSITY    439.9999770857
 TTTTTTTTTTTTTTTTTTTTTTTTTTTTTT NUMDFT      TELAPSE      221.80 TCPU      218.45
 CYC   5 ETOT(AU) -4.968813825932E+03 DETOT -1.40E-02 tst  3.62E-05 PX  8.42E-03
 TTTTTTTTTTTTTTTTTTTTTTTTTTTTTT DIIS        TELAPSE      221.87 TCPU      218.51
 DIIS TEST: 0.35067E-02 AT SCF   CYCLE   5 - DIIS ACTIVE - HISTORY:     5 CYCLES
 TTTTTTTTTTTTTTTTTTTTTTTTTTTTTT FDIK        TELAPSE      224.08 TCPU      220.72
 INSULATING STATE
 TOP OF VALENCE BANDS -    BAND    220; K   43; EIG -2.1096155E-01 AU
 TOP OF VALENCE BANDS -    BAND    220; K    1; EIG -2.1705550E-01 AU
 BOTTOM OF VIRTUAL BANDS - BAND    221; K   43; EIG -3.0364369E-02 AU
 DIRECT ENERGY BAND GAP:   4.9143 eV
 BOTTOM OF VIRTUAL BANDS - BAND    221; K    1; EIG -2.0903964E-02 AU
 TTTTTTTTTTTTTTTTTTTTTTTTTTTTTT PDIG        TELAPSE      227.08 TCPU      223.72
 TTTTTTTTTTTTTTTTTTTTTTTTTTTTTT MOQGAD      TELAPSE      227.10 TCPU      223.73
 TTTTTTTTTTTTTTTTTTTTTTTTTTTTTT SHELLXN     TELAPSE      253.68 TCPU      250.26
 TTTTTTTTTTTTTTTTTTTTTTTTTTTTTT MONMO3      TELAPSE      254.01 TCPU      250.59
 NUMERICALLY INTEGRATED DENSITY    439.9999772344
 TTTTTTTTTTTTTTTTTTTTTTTTTTTTTT NUMDFT      TELAPSE      257.71 TCPU      254.28
 CYC   6 ETOT(AU) -4.968814230951E+03 DETOT -4.05E-04 tst  1.02E-06 PX  3.34E-03
 TTTTTTTTTTTTTTTTTTTTTTTTTTTTTT DIIS        TELAPSE      257.78 TCPU      254.35
 DIIS TEST: 0.73274E-03 AT SCF   CYCLE   6 - DIIS ACTIVE - HISTORY:     6 CYCLES
 TTTTTTTTTTTTTTTTTTTTTTTTTTTTTT FDIK        TELAPSE      259.37 TCPU      255.93
 INSULATING STATE
 TOP OF VALENCE BANDS -    BAND    220; K   68; EIG -2.1166611E-01 AU
 TOP OF VALENCE BANDS -    BAND    220; K    1; EIG -2.1822865E-01 AU
 BOTTOM OF VIRTUAL BANDS - BAND    221; K   43; EIG -3.0215033E-02 AU
 INDIRECT ENERGY BAND GAP:   4.9375 eV
 BOTTOM OF VIRTUAL BANDS - BAND    221; K    1; EIG -2.0590429E-02 AU
 TTTTTTTTTTTTTTTTTTTTTTTTTTTTTT PDIG        TELAPSE      259.89 TCPU      256.45
 TTTTTTTTTTTTTTTTTTTTTTTTTTTTTT MOQGAD      TELAPSE      259.90 TCPU      256.46
 TTTTTTTTTTTTTTTTTTTTTTTTTTTTTT SHELLXN     TELAPSE      286.80 TCPU      283.33
 TTTTTTTTTTTTTTTTTTTTTTTTTTTTTT MONMO3      TELAPSE      287.13 TCPU      283.66
 NUMERICALLY INTEGRATED DENSITY    439.9999771792
 TTTTTTTTTTTTTTTTTTTTTTTTTTTTTT NUMDFT      TELAPSE      290.94 TCPU      287.47
 CYC   7 ETOT(AU) -4.968814220414E+03 DETOT  1.05E-05 tst  1.48E-06 PX  2.71E-03
 TTTTTTTTTTTTTTTTTTTTTTTTTTTTTT DIIS        TELAPSE      291.02 TCPU      287.54
 DIIS TEST: 0.83182E-03 AT SCF   CYCLE   7 - DIIS ACTIVE - HISTORY:     7 CYCLES
 TTTTTTTTTTTTTTTTTTTTTTTTTTTTTT FDIK        TELAPSE      292.86 TCPU      289.37
 INSULATING STATE
 TOP OF VALENCE BANDS -    BAND    220; K   43; EIG -2.1151537E-01 AU
 TOP OF VALENCE BANDS -    BAND    220; K    1; EIG -2.1775819E-01 AU
 BOTTOM OF VIRTUAL BANDS - BAND    221; K   43; EIG -3.0270703E-02 AU
 DIRECT ENERGY BAND GAP:   4.9319 eV
 BOTTOM OF VIRTUAL BANDS - BAND    221; K    1; EIG -2.0669116E-02 AU
 TTTTTTTTTTTTTTTTTTTTTTTTTTTTTT PDIG        TELAPSE      293.39 TCPU      289.90
 TTTTTTTTTTTTTTTTTTTTTTTTTTTTTT MOQGAD      TELAPSE      293.40 TCPU      289.91
 TTTTTTTTTTTTTTTTTTTTTTTTTTTTTT SHELLXN     TELAPSE      320.11 TCPU      316.61
 TTTTTTTTTTTTTTTTTTTTTTTTTTTTTT MONMO3      TELAPSE      320.44 TCPU      316.94
 NUMERICALLY INTEGRATED DENSITY    439.9999771956
 TTTTTTTTTTTTTTTTTTTTTTTTTTTTTT NUMDFT      TELAPSE      324.10 TCPU      320.59
 CYC   8 ETOT(AU) -4.968814333963E+03 DETOT -1.14E-04 tst  5.07E-07 PX  1.08E-03
 TTTTTTTTTTTTTTTTTTTTTTTTTTTTTT DIIS        TELAPSE      324.16 TCPU      320.65
 DIIS TEST: 0.16443E-03 AT SCF   CYCLE   8 - DIIS ACTIVE - HISTORY:     8 CYCLES
 TTTTTTTTTTTTTTTTTTTTTTTTTTTTTT FDIK        TELAPSE      325.91 TCPU      322.40
 INSULATING STATE
 TOP OF VALENCE BANDS -    BAND    220; K   43; EIG -2.1141485E-01 AU
 TOP OF VALENCE BANDS -    BAND    220; K    1; EIG -2.1769008E-01 AU
 BOTTOM OF VIRTUAL BANDS - BAND    221; K   43; EIG -3.0270354E-02 AU
 DIRECT ENERGY BAND GAP:   4.9292 eV
 BOTTOM OF VIRTUAL BANDS - BAND    221; K    1; EIG -2.0703282E-02 AU
 TTTTTTTTTTTTTTTTTTTTTTTTTTTTTT PDIG        TELAPSE      326.44 TCPU      322.92
 TTTTTTTTTTTTTTTTTTTTTTTTTTTTTT MOQGAD      TELAPSE      326.45 TCPU      322.94
 TTTTTTTTTTTTTTTTTTTTTTTTTTTTTT SHELLXN     TELAPSE      353.18 TCPU      349.65
 TTTTTTTTTTTTTTTTTTTTTTTTTTTTTT MONMO3      TELAPSE      353.51 TCPU      349.98
 NUMERICALLY INTEGRATED DENSITY    439.9999771964
 TTTTTTTTTTTTTTTTTTTTTTTTTTTTTT NUMDFT      TELAPSE      357.23 TCPU      353.70
 CYC   9 ETOT(AU) -4.968814343454E+03 DETOT -9.49E-06 tst  6.42E-08 PX  1.22E-03
 TTTTTTTTTTTTTTTTTTTTTTTTTTTTTT DIIS        TELAPSE      357.30 TCPU      353.77
 DIIS TEST: 0.60414E-04 AT SCF   CYCLE   9 - DIIS ACTIVE - HISTORY:     9 CYCLES
 TTTTTTTTTTTTTTTTTTTTTTTTTTTTTT FDIK        TELAPSE      358.81 TCPU      355.28
 INSULATING STATE
 TOP OF VALENCE BANDS -    BAND    220; K   43; EIG -2.1145288E-01 AU
 TOP OF VALENCE BANDS -    BAND    220; K    1; EIG -2.1769857E-01 AU
 BOTTOM OF VIRTUAL BANDS - BAND    221; K   43; EIG -3.0230901E-02 AU
 DIRECT ENERGY BAND GAP:   4.9313 eV
 BOTTOM OF VIRTUAL BANDS - BAND    221; K    1; EIG -2.0652276E-02 AU
 TTTTTTTTTTTTTTTTTTTTTTTTTTTTTT PDIG        TELAPSE      359.34 TCPU      355.80
 TTTTTTTTTTTTTTTTTTTTTTTTTTTTTT MOQGAD      TELAPSE      359.35 TCPU      355.81
 TTTTTTTTTTTTTTTTTTTTTTTTTTTTTT SHELLXN     TELAPSE      386.07 TCPU      382.52
 TTTTTTTTTTTTTTTTTTTTTTTTTTTTTT MONMO3      TELAPSE      386.41 TCPU      382.85
 NUMERICALLY INTEGRATED DENSITY    439.9999771982
 TTTTTTTTTTTTTTTTTTTTTTTTTTTTTT NUMDFT      TELAPSE      390.12 TCPU      386.56
 CYC  10 ETOT(AU) -4.968814347627E+03 DETOT -4.17E-06 tst  1.99E-08 PX  5.30E-04
 TTTTTTTTTTTTTTTTTTTTTTTTTTTTTT DIIS        TELAPSE      390.19 TCPU      386.63
 DIIS TEST: 0.25823E-04 AT SCF   CYCLE  10 - DIIS ACTIVE - HISTORY:    10 CYCLES
 TTTTTTTTTTTTTTTTTTTTTTTTTTTTTT FDIK        TELAPSE      392.11 TCPU      388.55
 INSULATING STATE
 TOP OF VALENCE BANDS -    BAND    220; K   43; EIG -2.1144657E-01 AU
 TOP OF VALENCE BANDS -    BAND    220; K    1; EIG -2.1772411E-01 AU
 BOTTOM OF VIRTUAL BANDS - BAND    221; K   43; EIG -3.0247445E-02 AU
 DIRECT ENERGY BAND GAP:   4.9307 eV
 BOTTOM OF VIRTUAL BANDS - BAND    221; K    1; EIG -2.0659446E-02 AU
 TTTTTTTTTTTTTTTTTTTTTTTTTTTTTT PDIG        TELAPSE      392.65 TCPU      389.08
 TTTTTTTTTTTTTTTTTTTTTTTTTTTTTT MOQGAD      TELAPSE      392.66 TCPU      389.09
 TTTTTTTTTTTTTTTTTTTTTTTTTTTTTT SHELLXN     TELAPSE      419.35 TCPU      415.77
 TTTTTTTTTTTTTTTTTTTTTTTTTTTTTT MONMO3      TELAPSE      419.68 TCPU      416.10
 NUMERICALLY INTEGRATED DENSITY    439.9999771963
 TTTTTTTTTTTTTTTTTTTTTTTTTTTTTT NUMDFT      TELAPSE      423.63 TCPU      420.05
 CYC  11 ETOT(AU) -4.968814348658E+03 DETOT -1.03E-06 tst  1.17E-08 PX  2.08E-04
 TTTTTTTTTTTTTTTTTTTTTTTTTTTTTT DIIS        TELAPSE      423.71 TCPU      420.12
 DIIS TEST: 0.13415E-04 AT SCF   CYCLE  11 - DIIS ACTIVE - HISTORY:    11 CYCLES
 TTTTTTTTTTTTTTTTTTTTTTTTTTTTTT FDIK        TELAPSE      425.41 TCPU      421.81
 INSULATING STATE
 TOP OF VALENCE BANDS -    BAND    220; K   43; EIG -2.1144183E-01 AU
 TOP OF VALENCE BANDS -    BAND    220; K    1; EIG -2.1768952E-01 AU
 BOTTOM OF VIRTUAL BANDS - BAND    221; K   43; EIG -3.0251301E-02 AU
 DIRECT ENERGY BAND GAP:   4.9304 eV
 BOTTOM OF VIRTUAL BANDS - BAND    221; K    1; EIG -2.0680003E-02 AU
 TTTTTTTTTTTTTTTTTTTTTTTTTTTTTT PDIG        TELAPSE      425.94 TCPU      422.33
 TTTTTTTTTTTTTTTTTTTTTTTTTTTTTT MOQGAD      TELAPSE      425.95 TCPU      422.35
 TTTTTTTTTTTTTTTTTTTTTTTTTTTTTT SHELLXN     TELAPSE      452.66 TCPU      449.05
 TTTTTTTTTTTTTTTTTTTTTTTTTTTTTT MONMO3      TELAPSE      452.99 TCPU      449.37
 NUMERICALLY INTEGRATED DENSITY    439.9999771960
 TTTTTTTTTTTTTTTTTTTTTTTTTTTTTT NUMDFT      TELAPSE      456.70 TCPU      453.08
 CYC  12 ETOT(AU) -4.968814349521E+03 DETOT -8.63E-07 tst  6.52E-09 PX  2.01E-04
 TTTTTTTTTTTTTTTTTTTTTTTTTTTTTT DIIS        TELAPSE      456.77 TCPU      453.15
 DIIS TEST: 0.78076E-05 AT SCF   CYCLE  12 - DIIS ACTIVE - HISTORY:    12 CYCLES
 TTTTTTTTTTTTTTTTTTTTTTTTTTTTTT FDIK        TELAPSE      458.59 TCPU      454.97
 INSULATING STATE
 TOP OF VALENCE BANDS -    BAND    220; K   43; EIG -2.1144396E-01 AU
 TOP OF VALENCE BANDS -    BAND    220; K    1; EIG -2.1770679E-01 AU
 BOTTOM OF VIRTUAL BANDS - BAND    221; K   43; EIG -3.0240644E-02 AU
 DIRECT ENERGY BAND GAP:   4.9308 eV
 BOTTOM OF VIRTUAL BANDS - BAND    221; K    1; EIG -2.0659059E-02 AU
 TTTTTTTTTTTTTTTTTTTTTTTTTTTTTT PDIG        TELAPSE      459.12 TCPU      455.49
 TTTTTTTTTTTTTTTTTTTTTTTTTTTTTT MOQGAD      TELAPSE      459.13 TCPU      455.50
 TTTTTTTTTTTTTTTTTTTTTTTTTTTTTT SHELLXN     TELAPSE      485.88 TCPU      482.25
 TTTTTTTTTTTTTTTTTTTTTTTTTTTTTT MONMO3      TELAPSE      486.21 TCPU      482.57
 NUMERICALLY INTEGRATED DENSITY    439.9999771973
 TTTTTTTTTTTTTTTTTTTTTTTTTTTTTT NUMDFT      TELAPSE      489.90 TCPU      486.26
 CYC  13 ETOT(AU) -4.968814350147E+03 DETOT -6.26E-07 tst  1.96E-09 PX  1.27E-04
 TTTTTTTTTTTTTTTTTTTTTTTTTTTTTT DIIS        TELAPSE      489.98 TCPU      486.33
 DIIS TEST: 0.10320E-05 AT SCF   CYCLE  13 - DIIS ACTIVE - HISTORY:    13 CYCLES
 TTTTTTTTTTTTTTTTTTTTTTTTTTTTTT FDIK        TELAPSE      492.05 TCPU      488.41
 INSULATING STATE
 TOP OF VALENCE BANDS -    BAND    220; K   43; EIG -2.1144213E-01 AU
 TOP OF VALENCE BANDS -    BAND    220; K    1; EIG -2.1770238E-01 AU
 BOTTOM OF VIRTUAL BANDS - BAND    221; K   43; EIG -3.0247289E-02 AU
 DIRECT ENERGY BAND GAP:   4.9306 eV
 BOTTOM OF VIRTUAL BANDS - BAND    221; K    1; EIG -2.0668806E-02 AU
 TTTTTTTTTTTTTTTTTTTTTTTTTTTTTT PDIG        TELAPSE      492.58 TCPU      488.93
 TTTTTTTTTTTTTTTTTTTTTTTTTTTTTT MOQGAD      TELAPSE      492.59 TCPU      488.94
 TTTTTTTTTTTTTTTTTTTTTTTTTTTTTT SHELLXN     TELAPSE      519.32 TCPU      515.66
 TTTTTTTTTTTTTTTTTTTTTTTTTTTTTT MONMO3      TELAPSE      519.65 TCPU      515.99
 NUMERICALLY INTEGRATED DENSITY    439.9999771952
 TTTTTTTTTTTTTTTTTTTTTTTTTTTTTT NUMDFT      TELAPSE      523.36 TCPU      519.70
 CYC  14 ETOT(AU) -4.968814350294E+03 DETOT -1.48E-07 tst  1.36E-10 PX  5.07E-05
 TTTTTTTTTTTTTTTTTTTTTTTTTTTTTT DIIS        TELAPSE      523.52 TCPU      519.85
 DIIS TEST: 0.13313E-06 AT SCF   CYCLE  14 - DIIS ACTIVE - HISTORY:    14 CYCLES
 TTTTTTTTTTTTTTTTTTTTTTTTTTTTTT FDIK        TELAPSE      526.55 TCPU      522.88
 INSULATING STATE
 TOP OF VALENCE BANDS -    BAND    220; K   43; EIG -2.1144635E-01 AU
 TOP OF VALENCE BANDS -    BAND    220; K    1; EIG -2.1770703E-01 AU
 BOTTOM OF VIRTUAL BANDS - BAND    221; K   43; EIG -3.0243455E-02 AU
 DIRECT ENERGY BAND GAP:   4.9308 eV
 BOTTOM OF VIRTUAL BANDS - BAND    221; K    1; EIG -2.0662716E-02 AU
 TTTTTTTTTTTTTTTTTTTTTTTTTTTTTT PDIG        TELAPSE      527.22 TCPU      523.55
 TTTTTTTTTTTTTTTTTTTTTTTTTTTTTT MOQGAD      TELAPSE      527.24 TCPU      523.56
 TTTTTTTTTTTTTTTTTTTTTTTTTTTTTT SHELLXN     TELAPSE      553.88 TCPU      550.19
 TTTTTTTTTTTTTTTTTTTTTTTTTTTTTT MONMO3      TELAPSE      554.21 TCPU      550.52
 NUMERICALLY INTEGRATED DENSITY    439.9999771983
 TTTTTTTTTTTTTTTTTTTTTTTTTTTTTT NUMDFT      TELAPSE      558.13 TCPU      554.43
 CYC  15 ETOT(AU) -4.968814350187E+03 DETOT  1.07E-07 tst  1.23E-10 PX  2.65E-05
 TTTTTTTTTTTTTTTTTTTTTTTTTTTTTT DIIS        TELAPSE      558.26 TCPU      554.56
 DIIS TEST: 0.21667E-06 AT SCF   CYCLE  15 - DIIS ACTIVE - HISTORY:    15 CYCLES
 TTTTTTTTTTTTTTTTTTTTTTTTTTTTTT FDIK        TELAPSE      560.17 TCPU      556.46
 INSULATING STATE
 TOP OF VALENCE BANDS -    BAND    220; K   43; EIG -2.1144310E-01 AU
 TOP OF VALENCE BANDS -    BAND    220; K    1; EIG -2.1770381E-01 AU
 BOTTOM OF VIRTUAL BANDS - BAND    221; K   43; EIG -3.0244280E-02 AU
 DIRECT ENERGY BAND GAP:   4.9307 eV
 BOTTOM OF VIRTUAL BANDS - BAND    221; K    1; EIG -2.0664862E-02 AU
 TTTTTTTTTTTTTTTTTTTTTTTTTTTTTT PDIG        TELAPSE      560.70 TCPU      556.99
 TTTTTTTTTTTTTTTTTTTTTTTTTTTTTT MOQGAD      TELAPSE      560.71 TCPU      557.00
 TTTTTTTTTTTTTTTTTTTTTTTTTTTTTT SHELLXN     TELAPSE      587.41 TCPU      583.69
 TTTTTTTTTTTTTTTTTTTTTTTTTTTTTT MONMO3      TELAPSE      587.74 TCPU      584.02
 NUMERICALLY INTEGRATED DENSITY    439.9999771965
 TTTTTTTTTTTTTTTTTTTTTTTTTTTTTT NUMDFT      TELAPSE      591.43 TCPU      587.70
 CYC  16 ETOT(AU) -4.968814350256E+03 DETOT -6.90E-08 tst  5.23E-11 PX  1.65E-05
 TTTTTTTTTTTTTTTTTTTTTTTTTTTTTT DIIS        TELAPSE      591.55 TCPU      587.82
 DIIS TEST: 0.23083E-07 AT SCF   CYCLE  16 - DIIS ACTIVE - HISTORY:    16 CYCLES
 TTTTTTTTTTTTTTTTTTTTTTTTTTTTTT FDIK        TELAPSE      593.74 TCPU      590.01
 INSULATING STATE
 TOP OF VALENCE BANDS -    BAND    220; K   43; EIG -2.1144336E-01 AU
 TOP OF VALENCE BANDS -    BAND    220; K    1; EIG -2.1770407E-01 AU
 BOTTOM OF VIRTUAL BANDS - BAND    221; K   43; EIG -3.0245270E-02 AU
 DIRECT ENERGY BAND GAP:   4.9307 eV
 BOTTOM OF VIRTUAL BANDS - BAND    221; K    1; EIG -2.0665669E-02 AU
 TTTTTTTTTTTTTTTTTTTTTTTTTTTTTT PDIG        TELAPSE      594.27 TCPU      590.54
 TTTTTTTTTTTTTTTTTTTTTTTTTTTTTT MOQGAD      TELAPSE      594.28 TCPU      590.55
 TTTTTTTTTTTTTTTTTTTTTTTTTTTTTT SHELLXN     TELAPSE      620.98 TCPU      617.24
 TTTTTTTTTTTTTTTTTTTTTTTTTTTTTT MONMO3      TELAPSE      621.31 TCPU      617.57
 NUMERICALLY INTEGRATED DENSITY    439.9999771963
 TTTTTTTTTTTTTTTTTTTTTTTTTTTTTT NUMDFT      TELAPSE      625.15 TCPU      621.40
 CYC  17 ETOT(AU) -4.968814350262E+03 DETOT -5.49E-09 tst  9.43E-12 PX  8.03E-06
 TTTTTTTTTTTTTTTTTTTTTTTTTTTTTT DIIS        TELAPSE      625.27 TCPU      621.51
 DIIS TEST: 0.15456E-07 AT SCF   CYCLE  17 - DIIS ACTIVE - HISTORY:    17 CYCLES
 TTTTTTTTTTTTTTTTTTTTTTTTTTTTTT FDIK        TELAPSE      627.08 TCPU      623.32
 INSULATING STATE
 TOP OF VALENCE BANDS -    BAND    220; K   43; EIG -2.1144385E-01 AU
 TOP OF VALENCE BANDS -    BAND    220; K    1; EIG -2.1770444E-01 AU
 BOTTOM OF VIRTUAL BANDS - BAND    221; K   43; EIG -3.0244980E-02 AU
 DIRECT ENERGY BAND GAP:   4.9307 eV
 BOTTOM OF VIRTUAL BANDS - BAND    221; K    1; EIG -2.0665560E-02 AU
 TTTTTTTTTTTTTTTTTTTTTTTTTTTTTT PDIG        TELAPSE      627.60 TCPU      623.84
 TTTTTTTTTTTTTTTTTTTTTTTTTTTTTT MOQGAD      TELAPSE      627.62 TCPU      623.85
 TTTTTTTTTTTTTTTTTTTTTTTTTTTTTT SHELLXN     TELAPSE      654.32 TCPU      650.55
 TTTTTTTTTTTTTTTTTTTTTTTTTTTTTT MONMO3      TELAPSE      654.65 TCPU      650.88
 NUMERICALLY INTEGRATED DENSITY    439.9999771966
 TTTTTTTTTTTTTTTTTTTTTTTTTTTTTT NUMDFT      TELAPSE      658.53 TCPU      654.75
 CYC  18 ETOT(AU) -4.968814350258E+03 DETOT  3.98E-09 tst  1.98E-11 PX  1.12E-05
 TTTTTTTTTTTTTTTTTTTTTTTTTTTTTT DIIS        TELAPSE      658.67 TCPU      654.88
 DIIS TEST: 0.18880E-07 AT SCF   CYCLE  18 - DIIS ACTIVE - HISTORY:    18 CYCLES
 TTTTTTTTTTTTTTTTTTTTTTTTTTTTTT FDIK        TELAPSE      660.46 TCPU      656.67
 INSULATING STATE
 TOP OF VALENCE BANDS -    BAND    220; K   43; EIG -2.1144346E-01 AU
 TOP OF VALENCE BANDS -    BAND    220; K    1; EIG -2.1770411E-01 AU
 BOTTOM OF VIRTUAL BANDS - BAND    221; K   43; EIG -3.0244795E-02 AU
 DIRECT ENERGY BAND GAP:   4.9307 eV
 BOTTOM OF VIRTUAL BANDS - BAND    221; K    1; EIG -2.0665361E-02 AU
 TTTTTTTTTTTTTTTTTTTTTTTTTTTTTT PDIG        TELAPSE      660.99 TCPU      657.20
 TTTTTTTTTTTTTTTTTTTTTTTTTTTTTT MOQGAD      TELAPSE      661.02 TCPU      657.23
 TTTTTTTTTTTTTTTTTTTTTTTTTTTTTT SHELLXN     TELAPSE      687.75 TCPU      683.93
 TTTTTTTTTTTTTTTTTTTTTTTTTTTTTT MONMO3      TELAPSE      688.08 TCPU      684.26
 NUMERICALLY INTEGRATED DENSITY    439.9999771965
 TTTTTTTTTTTTTTTTTTTTTTTTTTTTTT NUMDFT      TELAPSE      691.80 TCPU      687.96
 CYC  19 ETOT(AU) -4.968814350259E+03 DETOT -1.07E-09 tst  1.32E-11 PX  6.43E-06
 TTTTTTTTTTTTTTTTTTTTTTTTTTTTTT DIIS        TELAPSE      691.92 TCPU      688.08
 DIIS TEST: 0.35101E-08 AT SCF   CYCLE  19 - DIIS ACTIVE - HISTORY:    19 CYCLES
 TTTTTTTTTTTTTTTTTTTTTTTTTTTTTT FDIK        TELAPSE      694.10 TCPU      690.26
 INSULATING STATE
 TOP OF VALENCE BANDS -    BAND    220; K   43; EIG -2.1144337E-01 AU
 TOP OF VALENCE BANDS -    BAND    220; K    1; EIG -2.1770405E-01 AU
 BOTTOM OF VIRTUAL BANDS - BAND    221; K   43; EIG -3.0244856E-02 AU
 DIRECT ENERGY BAND GAP:   4.9307 eV
 BOTTOM OF VIRTUAL BANDS - BAND    221; K    1; EIG -2.0665359E-02 AU
 TTTTTTTTTTTTTTTTTTTTTTTTTTTTTT PDIG        TELAPSE      694.63 TCPU      690.78
 TTTTTTTTTTTTTTTTTTTTTTTTTTTTTT MOQGAD      TELAPSE      694.64 TCPU      690.79
 TTTTTTTTTTTTTTTTTTTTTTTTTTTTTT SHELLXN     TELAPSE      721.34 TCPU      717.47
 TTTTTTTTTTTTTTTTTTTTTTTTTTTTTT MONMO3      TELAPSE      721.67 TCPU      717.80
 NUMERICALLY INTEGRATED DENSITY    439.9999771964
 TTTTTTTTTTTTTTTTTTTTTTTTTTTTTT NUMDFT      TELAPSE      725.57 TCPU      721.69
 CYC  20 ETOT(AU) -4.968814350259E+03 DETOT -6.88E-10 tst  1.95E-12 PX  2.58E-06
 TTTTTTTTTTTTTTTTTTTTTTTTTTTTTT DIIS        TELAPSE      725.70 TCPU      721.82
 DIIS TEST: 0.41440E-09 AT SCF   CYCLE  20 - DIIS ACTIVE - HISTORY:    20 CYCLES
 TTTTTTTTTTTTTTTTTTTTTTTTTTTTTT FDIK        TELAPSE      727.32 TCPU      723.43
 INSULATING STATE
 TOP OF VALENCE BANDS -    BAND    220; K   43; EIG -2.1144352E-01 AU
 TOP OF VALENCE BANDS -    BAND    220; K    1; EIG -2.1770418E-01 AU
 BOTTOM OF VIRTUAL BANDS - BAND    221; K   43; EIG -3.0244982E-02 AU
 DIRECT ENERGY BAND GAP:   4.9307 eV
 BOTTOM OF VIRTUAL BANDS - BAND    221; K    1; EIG -2.0665491E-02 AU
 TTTTTTTTTTTTTTTTTTTTTTTTTTTTTT PDIG        TELAPSE      727.84 TCPU      723.95
 TTTTTTTTTTTTTTTTTTTTTTTTTTTTTT MOQGAD      TELAPSE      727.85 TCPU      723.97
 TTTTTTTTTTTTTTTTTTTTTTTTTTTTTT SHELLXN     TELAPSE      754.48 TCPU      750.55
 ::: PSEUDO TOTAL   ENERGY                        -4.6285517760586E+03
 ::: VIRIAL COEFFICIENT                            8.5960588228690E-01
 TTTTTTTTTTTTTTTTTTTTTTTTTTTTTT MONMO3      TELAPSE      754.81 TCPU      750.88
 NUMERICALLY INTEGRATED DENSITY    439.9999771965
 EXCHANGE ENERGY: -0.322373658938E+03  CORRELATION ENERGY: -0.178889152638E+02
 TTTTTTTTTTTTTTTTTTTTTTTTTTTTTT NUMDFT      TELAPSE      758.65 TCPU      754.72
 CYC  21 ETOT(AU) -4.968814350260E+03 DETOT -7.78E-10 tst  1.93E-13 PX  2.58E-06

 == SCF ENDED - CONVERGENCE ON ENERGY      E(AU) -4.9688143502603E+03 CYCLES  21


 ENERGY EXPRESSION=HARTREE+FOCK EXCH*0.25000+(PBE        EXCH)*0.75000+PBE        CORR


 TOTAL ENERGY(DFT)(AU)( 21) -4.9688143502603E+03 DE-7.8E-10 tester 1.9E-13
 TTTTTTTTTTTTTTTTTTTTTTTTTTTTTT EDFT        TELAPSE      758.71 TCPU      754.74

 INFORMATION **** DFTD3 ENERGY **** CALCULATE DFTD3 ENERGY

           DFT-D V3(BJ)
 DF                                         pbe0      
 parameters
 s6       :    1.0000
 s8       :    1.2177
 a1       :    0.4145
 a2       :    4.8593
 k1 k3    :   16.0000   -4.0000
 Cutoff   :   50.2022
 CN-Cutoff:   21.1671
 ABC-Cutoff:   21.1671

 Edisp /kcal,au:  -166.3600 -0.26511147

 E6    /kcal :   -88.9372
 E8    /kcal :   -77.4228
 
 INFORMATION **** DFTD3 ENERGY **** NORMAL TERMINATION OF DFTD3 MODULE

 *******************************************************************************

 DFT-D3 DISPERSION ENERGY CORRECTION

 D3 DISPERSION ENERGY (AU)       -2.6511146778486E-01
 TOTAL ENERGY + DISP (AU)        -4.9690794617281E+03

 *******************************************************************************

 INSULATING STATE
 TOP OF VALENCE BANDS -    BAND    220; K   43; EIG -2.1144341E-01 AU
 TOP OF VALENCE BANDS -    BAND    220; K    1; EIG -2.1770409E-01 AU
 BOTTOM OF VIRTUAL BANDS - BAND    221; K   43; EIG -3.0244861E-02 AU
 DIRECT ENERGY BAND GAP:   4.9307 eV
 BOTTOM OF VIRTUAL BANDS - BAND    221; K    1; EIG -2.0665383E-02 AU
 EIGENVECTORS IN FORTRAN UNIT 10
 EEEEEEEEEE SCF TERMINATION  DATE 05 01 2025 TIME 21:40:01.0

     *********************************************************************
     * ***************************************************************** *
     * *        COUPLED-PERTURBED KOHN-SHAM CALCULATION (CPKS)         * *
     * *        REFERENCES TO BE QUOTED WHEN USING THIS MODULE:        * *
     * *        (1) M. Ferrero, M. Rerat, R. Orlando, R.Dovesi,        * *
     * *            J. Comput. Chem. 29 (2008), 1450;                  * *
     * *            J. Chem. Phys. 128 (2008), 014110.                 * *
     * *        (2) M. Ferrero, M. Rerat, B. Kirtman, R. Dovesi,       * *
     * *            J. Chem. Phys. 129 (2008), 244110.                 * *
     * ***************************************************************** *
     *********************************************************************

 INFORMATION **** CP_DRIVER **** CONVERGENCE ON ALPHA: 10**          -3
 INFORMATION **** CP_DRIVER **** MAX NUMBER OF CPHF/CPKS CYCLES         200
 INFORMATION **** CP_DRIVER **** CPHF/CPKS DAMPING PERCENTAGE:          60
 STATIC FIELD (OR H*NU < 1E-15 HA)

 *******************************************************************************

 ELECTRIC FIELD APPLIED ALONG CARTESIAN DIRECTION X

 *******************************************************************************
 THE NUMBER OF SYMMETRY OPERATORS HAS BEEN REDUCED FROM  2 TO  1

 NEW GRID IN RECIPROCAL SPACE
 *******************************************************************************
 POINTS IN THE IBZ                 112 SHRINKING FACTORS               6  6  6
 *******************************************************************************
 *** K POINTS COORDINATES (OBLIQUE COORDINATES IN UNITS OF SHRINK FAC. )
   1-R(  0  0  0)   2-C(  1  0  0)   3-C(  2  0  0)   4-R(  3  0  0)
   5-C(  0  1  0)   6-C(  1  1  0)   7-C(  5  1  0)   8-C(  2  1  0)
   9-C(  4  1  0)  10-C(  3  1  0)  11-C(  0  2  0)  12-C(  1  2  0)
  13-C(  5  2  0)  14-C(  2  2  0)  15-C(  4  2  0)  16-C(  3  2  0)
  17-R(  0  3  0)  18-C(  1  3  0)  19-C(  2  3  0)  20-R(  3  3  0)
  21-C(  0  0  1)  22-C(  1  0  1)  23-C(  2  0  1)  24-C(  3  0  1)
  25-C(  4  0  1)  26-C(  5  0  1)  27-C(  0  1  1)  28-C(  0  1  5)
  29-C(  1  1  1)  30-C(  5  1  5)  31-C(  2  1  1)  32-C(  4  1  5)
  33-C(  3  1  1)  34-C(  3  1  5)  35-C(  4  1  1)  36-C(  2  1  5)
  37-C(  5  1  1)  38-C(  1  1  5)  39-C(  0  2  1)  40-C(  0  2  5)
  41-C(  1  2  1)  42-C(  5  2  5)  43-C(  2  2  1)  44-C(  4  2  5)
  45-C(  3  2  1)  46-C(  3  2  5)  47-C(  4  2  1)  48-C(  2  2  5)
  49-C(  5  2  1)  50-C(  1  2  5)  51-C(  0  3  1)  52-C(  1  3  1)
  53-C(  2  3  1)  54-C(  3  3  1)  55-C(  4  3  1)  56-C(  5  3  1)
  57-C(  0  0  2)  58-C(  1  0  2)  59-C(  2  0  2)  60-C(  3  0  2)
  61-C(  4  0  2)  62-C(  5  0  2)  63-C(  0  1  2)  64-C(  0  1  4)
  65-C(  1  1  2)  66-C(  5  1  4)  67-C(  2  1  2)  68-C(  4  1  4)
  69-C(  3  1  2)  70-C(  3  1  4)  71-C(  4  1  2)  72-C(  2  1  4)
  73-C(  5  1  2)  74-C(  1  1  4)  75-C(  0  2  2)  76-C(  0  2  4)
  77-C(  1  2  2)  78-C(  5  2  4)  79-C(  2  2  2)  80-C(  4  2  4)
  81-C(  3  2  2)  82-C(  3  2  4)  83-C(  4  2  2)  84-C(  2  2  4)
  85-C(  5  2  2)  86-C(  1  2  4)  87-C(  0  3  2)  88-C(  1  3  2)
  89-C(  2  3  2)  90-C(  3  3  2)  91-C(  4  3  2)  92-C(  5  3  2)
  93-R(  0  0  3)  94-C(  1  0  3)  95-C(  2  0  3)  96-R(  3  0  3)
  97-C(  0  1  3)  98-C(  1  1  3)  99-C(  5  1  3) 100-C(  2  1  3)
 101-C(  4  1  3) 102-C(  3  1  3) 103-C(  0  2  3) 104-C(  1  2  3)
 105-C(  5  2  3) 106-C(  2  2  3) 107-C(  4  2  3) 108-C(  3  2  3)
 109-R(  0  3  3) 110-C(  1  3  3) 111-C(  2  3  3) 112-R(  3  3  3)

 GCALCO - MAX INDICES DIRECT LATTICE VECTOR    11    24    11
 NO.OF VECTORS CREATED 6999 STARS 1824 RMAX   176.68609 BOHR
 TTTTTTTTTTTTTTTTTTTTTTTTTTTTTT gordsh1     TELAPSE      849.64 TCPU      845.53

 MATRIX SIZE: P(G) 4272168, F(G)  404130, P(G) IRR 2145958, F(G) IRR  406270
 MAX G-VECTOR INDEX FOR 1- AND 2-ELECTRON INTEGRALS 159

 TTTTTTTTTTTTTTTTTTTTTTTTTTTTTT INPUT       TELAPSE      849.68 TCPU      845.57
 TTTTTTTTTTTTTTTTTTTTTTTTTTTTTT SYMM        TELAPSE      849.69 TCPU      845.57

 ***** NEW REFERENCE GEOMETRY *****
 TTTTTTTTTTTTTTTTTTTTTTTTTTTTTT INT_SCREEN  TELAPSE      857.21 TCPU      853.09
 WARNING **** EXCBUF **** EXCH. BIPO BUFFER TOO SMALL - TO AVOID I/O SET EXCHSIZE =     7429374

 DFT PARAMETERS

     ATOM       ELECTRONS   NET CHARGE   R(ANGSTROM)
   1  12  MG     12.0000      0.0000     1.60000000
   5  53  I      25.0000      0.0000     1.33000000
  13   8  O       8.0000      0.0000     0.74000000

 SIZE OF GRID=    5672144
 TTTTTTTTTTTTTTTTTTTTTTTTTTTTTT MAKE_GRID2  TELAPSE      867.81 TCPU      863.60
 BECKE WEIGHT FUNCTION
 RADSAFE =     2.00
 TOLERANCES - DENSITY:10**- 6; POTENTIAL:10**- 9; GRID WGT:10**-14

 RADIAL INTEGRATION  - INTERVALS (POINTS,UPPER LIMIT):            1(300,  4.0*R)

 ANGULAR INTEGRATION - INTERVALS (ACCURACY LEVEL [N. POINTS] UPPER LIMIT):
  1(  6[ 146]   0.2)  2( 11[ 302]   0.5)  3( 14[ 590]   0.9)  4( 18[1454]   3.5)
  5( 14[ 590]9999.0)
 TTTTTTTTTTTTTTTTTTTTTTTTTTTTTT INT_CALC    TELAPSE      867.83 TCPU      863.62
 CYCLE   0   ALPHA  791.793536  EPSILON    4.021277  DELTA    7.9179E+02
 WARNING **** GENBUF **** COULOMB BIPO BUFFER TOO SMALL - TO AVOID I/O SET BIPOSIZE =    10116650
 WARNING **** EXCBUF **** EXCH. BIPO BUFFER TOO SMALL - TO AVOID I/O SET EXCHSIZE =     7429374
 WARNING **** GENPOL2 **** COULOMB BIPO BUFFER EXCEEDED - TO AVOID I/O SET BIPOSIZE TO    10116650
 TTTTTTTTTTTTTTTTTTTTTTTTTTTTTT MOQGAD      TELAPSE      925.93 TCPU      921.07
 TTTTTTTTTTTTTTTTTTTTTTTTTTTTTT CP_MONMON   TELAPSE      932.99 TCPU      928.13
 DIIS TEST: 0.13584E+03 AT CPHF  CYCLE   1 - MIX   60 %
 CYCLE   1   ALPHA  569.936889  EPSILON    3.174730  DELTA   -2.2186E+02
 WARNING **** GENBUF **** COULOMB BIPO BUFFER TOO SMALL - TO AVOID I/O SET BIPOSIZE =    10116650
 WARNING **** EXCBUF **** EXCH. BIPO BUFFER TOO SMALL - TO AVOID I/O SET EXCHSIZE =     7429374
 WARNING **** GENPOL2 **** COULOMB BIPO BUFFER EXCEEDED - TO AVOID I/O SET BIPOSIZE TO    10116650
 TTTTTTTTTTTTTTTTTTTTTTTTTTTTTT MOQGAD      TELAPSE      985.68 TCPU      980.16
 TTTTTTTTTTTTTTTTTTTTTTTTTTTTTT CP_MONMON   TELAPSE      992.71 TCPU      987.18
 DIIS TEST: 0.74930E+03 AT CPHF  CYCLE   2 - DIIS ACTIVE - HISTORY:     2 CYCLES
 CYCLE   2   ALPHA  783.231688  EPSILON    3.988607  DELTA    2.1329E+02
 WARNING **** GENBUF **** COULOMB BIPO BUFFER TOO SMALL - TO AVOID I/O SET BIPOSIZE =    10116650
 WARNING **** EXCBUF **** EXCH. BIPO BUFFER TOO SMALL - TO AVOID I/O SET EXCHSIZE =     7429374
 WARNING **** GENPOL2 **** COULOMB BIPO BUFFER EXCEEDED - TO AVOID I/O SET BIPOSIZE TO    10116650
 TTTTTTTTTTTTTTTTTTTTTTTTTTTTTT MOQGAD      TELAPSE     1045.89 TCPU     1039.77
 TTTTTTTTTTTTTTTTTTTTTTTTTTTTTT CP_MONMON   TELAPSE     1052.97 TCPU     1046.84
 DIIS TEST: 0.66669E+00 AT CPHF  CYCLE   3 - DIIS ACTIVE - HISTORY:     3 CYCLES
 CYCLE   3   ALPHA  801.422060  EPSILON    4.058017  DELTA    1.8190E+01
 WARNING **** GENBUF **** COULOMB BIPO BUFFER TOO SMALL - TO AVOID I/O SET BIPOSIZE =    10116650
 WARNING **** EXCBUF **** EXCH. BIPO BUFFER TOO SMALL - TO AVOID I/O SET EXCHSIZE =     7429374
 WARNING **** GENPOL2 **** COULOMB BIPO BUFFER EXCEEDED - TO AVOID I/O SET BIPOSIZE TO    10116650
 TTTTTTTTTTTTTTTTTTTTTTTTTTTTTT MOQGAD      TELAPSE     1105.97 TCPU     1099.12
 TTTTTTTTTTTTTTTTTTTTTTTTTTTTTT CP_MONMON   TELAPSE     1112.99 TCPU     1106.12
 DIIS TEST: 0.22282E+01 AT CPHF  CYCLE   4 - DIIS ACTIVE - HISTORY:     4 CYCLES
 CYCLE   4   ALPHA  804.335247  EPSILON    4.069133  DELTA    2.9132E+00
 WARNING **** GENBUF **** COULOMB BIPO BUFFER TOO SMALL - TO AVOID I/O SET BIPOSIZE =    10116650
 WARNING **** EXCBUF **** EXCH. BIPO BUFFER TOO SMALL - TO AVOID I/O SET EXCHSIZE =     7429374
 WARNING **** GENPOL2 **** COULOMB BIPO BUFFER EXCEEDED - TO AVOID I/O SET BIPOSIZE TO    10116650
 TTTTTTTTTTTTTTTTTTTTTTTTTTTTTT MOQGAD      TELAPSE     1165.66 TCPU     1158.27
 TTTTTTTTTTTTTTTTTTTTTTTTTTTTTT CP_MONMON   TELAPSE     1172.67 TCPU     1165.26
 DIIS TEST: 0.14492E+00 AT CPHF  CYCLE   5 - DIIS ACTIVE - HISTORY:     5 CYCLES
 CYCLE   5   ALPHA  806.037066  EPSILON    4.075626  DELTA    1.7018E+00
 WARNING **** GENBUF **** COULOMB BIPO BUFFER TOO SMALL - TO AVOID I/O SET BIPOSIZE =    10116650
 WARNING **** EXCBUF **** EXCH. BIPO BUFFER TOO SMALL - TO AVOID I/O SET EXCHSIZE =     7429374
 WARNING **** GENPOL2 **** COULOMB BIPO BUFFER EXCEEDED - TO AVOID I/O SET BIPOSIZE TO    10116650
 TTTTTTTTTTTTTTTTTTTTTTTTTTTTTT MOQGAD      TELAPSE     1225.49 TCPU     1217.54
 TTTTTTTTTTTTTTTTTTTTTTTTTTTTTT CP_MONMON   TELAPSE     1232.49 TCPU     1224.55
 DIIS TEST: 0.12108E-01 AT CPHF  CYCLE   6 - DIIS ACTIVE - HISTORY:     6 CYCLES
 CYCLE   6   ALPHA  806.269007  EPSILON    4.076511  DELTA    2.3194E-01
 WARNING **** GENBUF **** COULOMB BIPO BUFFER TOO SMALL - TO AVOID I/O SET BIPOSIZE =    10116650
 WARNING **** EXCBUF **** EXCH. BIPO BUFFER TOO SMALL - TO AVOID I/O SET EXCHSIZE =     7429374
 WARNING **** GENPOL2 **** COULOMB BIPO BUFFER EXCEEDED - TO AVOID I/O SET BIPOSIZE TO    10116650
 TTTTTTTTTTTTTTTTTTTTTTTTTTTTTT MOQGAD      TELAPSE     1285.71 TCPU     1277.07
 TTTTTTTTTTTTTTTTTTTTTTTTTTTTTT CP_MONMON   TELAPSE     1292.84 TCPU     1284.19
 DIIS TEST: 0.16906E-02 AT CPHF  CYCLE   7 - DIIS ACTIVE - HISTORY:     7 CYCLES
[...]
-rw-r--r-- 1 fbodo linuxusers  10137864 Jan  7 08:20 fort.8.pe102
-rw-r--r-- 1 fbodo linuxusers  10137864 Jan  7 08:20 fort.8.pe103
-rw-r--r-- 1 fbodo linuxusers  10137864 Jan  7 08:20 fort.8.pe104
-rw-r--r-- 1 fbodo linuxusers  10137864 Jan  7 08:20 fort.8.pe105
-rw-r--r-- 1 fbodo linuxusers  10137864 Jan  7 08:20 fort.8.pe106
-rw-r--r-- 1 fbodo linuxusers  10137864 Jan  7 08:20 fort.8.pe107
-rw-r--r-- 1 fbodo linuxusers   5068936 Jan  7 08:20 fort.8.pe108
-rw-r--r-- 1 fbodo linuxusers  10137864 Jan  7 08:20 fort.8.pe109
-rw-r--r-- 1 fbodo linuxusers  10137864 Jan  7 08:20 fort.8.pe110
-rw-r--r-- 1 fbodo linuxusers   5068936 Jan  7 08:20 fort.8.pe111
-rw-r--r-- 1 fbodo linuxusers  10137864 Jan  7 08:20 fort.8.pe112
-rw-r--r-- 1 fbodo linuxusers  10137864 Jan  7 08:20 fort.8.pe113
-rw-r--r-- 1 fbodo linuxusers  10137864 Jan  7 08:20 fort.8.pe114
-rw-r--r-- 1 fbodo linuxusers  10137864 Jan  7 08:20 fort.8.pe115
-rw-r--r-- 1 fbodo linuxusers  10137864 Jan  7 08:20 fort.8.pe116
-rw-r--r-- 1 fbodo linuxusers  10137864 Jan  7 08:20 fort.8.pe117
-rw-r--r-- 1 fbodo linuxusers  10137864 Jan  7 08:20 fort.8.pe118
-rw-r--r-- 1 fbodo linuxusers  10137864 Jan  7 08:20 fort.8.pe119
-rw-r--r-- 1 fbodo linuxusers  10137864 Jan  7 08:20 fort.8.pe120
-rw-r--r-- 1 fbodo linuxusers  10137864 Jan  7 08:20 fort.8.pe121
-rw-r--r-- 1 fbodo linuxusers  10137864 Jan  7 08:20 fort.8.pe122
-rw-r--r-- 1 fbodo linuxusers  10137864 Jan  7 08:20 fort.8.pe123
-rw-r--r-- 1 fbodo linuxusers   5068936 Jan  7 08:20 fort.8.pe124
-rw-r--r-- 1 fbodo linuxusers  10137864 Jan  7 08:20 fort.8.pe125
-rw-r--r-- 1 fbodo linuxusers  10137864 Jan  7 08:20 fort.8.pe126
-rw-r--r-- 1 fbodo linuxusers   5068936 Jan  7 08:20 fort.8.pe127
-rw-r----- 1 fbodo linuxusers  12926604 Jan  7 08:21 fort.9
-rw-r--r-- 1 fbodo linuxusers  34177352 Jan  5 22:01 fort.90
-rw-r--r-- 1 fbodo linuxusers         0 Jan  5 21:27 fort.92.pe000
-rw-r--r-- 1 fbodo linuxusers         0 Jan  5 21:27 fort.92.pe001
-rw-r--r-- 1 fbodo linuxusers         0 Jan  5 21:27 fort.92.pe002
-rw-r--r-- 1 fbodo linuxusers         0 Jan  5 21:27 fort.92.pe003
-rw-r--r-- 1 fbodo linuxusers         0 Jan  5 21:27 fort.92.pe004
-rw-r--r-- 1 fbodo linuxusers         0 Jan  5 21:27 fort.92.pe005
-rw-r--r-- 1 fbodo linuxusers         0 Jan  5 21:27 fort.92.pe006
-rw-r--r-- 1 fbodo linuxusers         0 Jan  5 21:27 fort.92.pe007
-rw-r--r-- 1 fbodo linuxusers         0 Jan  5 21:27 fort.92.pe008
-rw-r--r-- 1 fbodo linuxusers         0 Jan  5 21:27 fort.92.pe009
-rw-r--r-- 1 fbodo linuxusers         0 Jan  5 21:27 fort.92.pe010
-rw-r--r-- 1 fbodo linuxusers         0 Jan  5 21:27 fort.92.pe011
-rw-r--r-- 1 fbodo linuxusers         0 Jan  5 21:27 fort.92.pe012
-rw-r--r-- 1 fbodo linuxusers         0 Jan  5 21:27 fort.92.pe013
-rw-r--r-- 1 fbodo linuxusers         0 Jan  5 21:27 fort.92.pe014
-rw-r--r-- 1 fbodo linuxusers         0 Jan  5 21:27 fort.92.pe015
-rw-r--r-- 1 fbodo linuxusers   5068936 Jan  5 22:13 fort.92.pe016
-rw-r--r-- 1 fbodo linuxusers  10137864 Jan  5 22:13 fort.92.pe017
-rw-r--r-- 1 fbodo linuxusers  10137864 Jan  5 22:13 fort.92.pe018
-rw-r--r-- 1 fbodo linuxusers   5068936 Jan  5 22:13 fort.92.pe019
-rw-r--r-- 1 fbodo linuxusers  10137864 Jan  5 22:13 fort.92.pe020
-rw-r--r-- 1 fbodo linuxusers  10137864 Jan  5 22:13 fort.92.pe021
-rw-r--r-- 1 fbodo linuxusers  10137864 Jan  5 22:13 fort.92.pe022
-rw-r--r-- 1 fbodo linuxusers  10137864 Jan  5 22:13 fort.92.pe023
-rw-r--r-- 1 fbodo linuxusers  10137864 Jan  5 22:13 fort.92.pe024
-rw-r--r-- 1 fbodo linuxusers  10137864 Jan  5 22:13 fort.92.pe025
-rw-r--r-- 1 fbodo linuxusers  10137864 Jan  5 22:13 fort.92.pe026
-rw-r--r-- 1 fbodo linuxusers  10137864 Jan  5 22:13 fort.92.pe027
-rw-r--r-- 1 fbodo linuxusers  10137864 Jan  5 22:13 fort.92.pe028
-rw-r--r-- 1 fbodo linuxusers  10137864 Jan  5 22:13 fort.92.pe029
-rw-r--r-- 1 fbodo linuxusers  10137864 Jan  5 22:13 fort.92.pe030
-rw-r--r-- 1 fbodo linuxusers  10137864 Jan  5 22:13 fort.92.pe031
-rw-r--r-- 1 fbodo linuxusers   5068936 Jan  5 22:13 fort.92.pe032
-rw-r--r-- 1 fbodo linuxusers  10137864 Jan  5 22:13 fort.92.pe033
-rw-r--r-- 1 fbodo linuxusers  10137864 Jan  5 22:13 fort.92.pe034
-rw-r--r-- 1 fbodo linuxusers   5068936 Jan  5 22:13 fort.92.pe035
-rw-r--r-- 1 fbodo linuxusers  10137864 Jan  5 22:13 fort.92.pe036
-rw-r--r-- 1 fbodo linuxusers  10137864 Jan  5 22:13 fort.92.pe037
-rw-r--r-- 1 fbodo linuxusers  10137864 Jan  5 22:13 fort.92.pe038
-rw-r--r-- 1 fbodo linuxusers  10137864 Jan  5 22:13 fort.92.pe039
-rw-r--r-- 1 fbodo linuxusers  10137864 Jan  5 22:13 fort.92.pe040
-rw-r--r-- 1 fbodo linuxusers  10137864 Jan  5 22:13 fort.92.pe041
-rw-r--r-- 1 fbodo linuxusers  10137864 Jan  5 22:13 fort.92.pe042
-rw-r--r-- 1 fbodo linuxusers  10137864 Jan  5 22:13 fort.92.pe043
-rw-r--r-- 1 fbodo linuxusers  10137864 Jan  5 22:13 fort.92.pe044
-rw-r--r-- 1 fbodo linuxusers  10137864 Jan  5 22:13 fort.92.pe045
-rw-r--r-- 1 fbodo linuxusers  10137864 Jan  5 22:13 fort.92.pe046
-rw-r--r-- 1 fbodo linuxusers  10137864 Jan  5 22:13 fort.92.pe047
-rw-r--r-- 1 fbodo linuxusers  10137864 Jan  5 22:13 fort.92.pe048
-rw-r--r-- 1 fbodo linuxusers  10137864 Jan  5 22:13 fort.92.pe049
-rw-r--r-- 1 fbodo linuxusers  10137864 Jan  5 22:13 fort.92.pe050
-rw-r--r-- 1 fbodo linuxusers  10137864 Jan  5 22:13 fort.92.pe051
-rw-r--r-- 1 fbodo linuxusers  10137864 Jan  5 22:13 fort.92.pe052
-rw-r--r-- 1 fbodo linuxusers  10137864 Jan  5 22:13 fort.92.pe053
-rw-r--r-- 1 fbodo linuxusers  10137864 Jan  5 22:13 fort.92.pe054
-rw-r--r-- 1 fbodo linuxusers  10137864 Jan  5 22:13 fort.92.pe055
-rw-r--r-- 1 fbodo linuxusers  10137864 Jan  5 22:13 fort.92.pe056
-rw-r--r-- 1 fbodo linuxusers  10137864 Jan  5 22:13 fort.92.pe057
-rw-r--r-- 1 fbodo linuxusers  10137864 Jan  5 22:13 fort.92.pe058
-rw-r--r-- 1 fbodo linuxusers  10137864 Jan  5 22:13 fort.92.pe059
-rw-r--r-- 1 fbodo linuxusers  10137864 Jan  5 22:13 fort.92.pe060
-rw-r--r-- 1 fbodo linuxusers  10137864 Jan  5 22:13 fort.92.pe061
-rw-r--r-- 1 fbodo linuxusers  10137864 Jan  5 22:13 fort.92.pe062
-rw-r--r-- 1 fbodo linuxusers  10137864 Jan  5 22:13 fort.92.pe063
-rw-r--r-- 1 fbodo linuxusers  10137864 Jan  5 22:13 fort.92.pe064
-rw-r--r-- 1 fbodo linuxusers  10137864 Jan  5 22:13 fort.92.pe065
-rw-r--r-- 1 fbodo linuxusers  10137864 Jan  5 22:13 fort.92.pe066
-rw-r--r-- 1 fbodo linuxusers  10137864 Jan  5 22:13 fort.92.pe067
-rw-r--r-- 1 fbodo linuxusers  10137864 Jan  5 22:13 fort.92.pe068
-rw-r--r-- 1 fbodo linuxusers  10137864 Jan  5 22:13 fort.92.pe069
-rw-r--r-- 1 fbodo linuxusers  10137864 Jan  5 22:13 fort.92.pe070
-rw-r--r-- 1 fbodo linuxusers  10137864 Jan  5 22:13 fort.92.pe071
-rw-r--r-- 1 fbodo linuxusers  10137864 Jan  5 22:13 fort.92.pe072
-rw-r--r-- 1 fbodo linuxusers  10137864 Jan  5 22:13 fort.92.pe073
-rw-r--r-- 1 fbodo linuxusers  10137864 Jan  5 22:13 fort.92.pe074
-rw-r--r-- 1 fbodo linuxusers  10137864 Jan  5 22:13 fort.92.pe075
-rw-r--r-- 1 fbodo linuxusers  10137864 Jan  5 22:13 fort.92.pe076
-rw-r--r-- 1 fbodo linuxusers  10137864 Jan  5 22:13 fort.92.pe077
-rw-r--r-- 1 fbodo linuxusers  10137864 Jan  5 22:13 fort.92.pe078
-rw-r--r-- 1 fbodo linuxusers  10137864 Jan  5 22:13 fort.92.pe079
-rw-r--r-- 1 fbodo linuxusers  10137864 Jan  5 22:13 fort.92.pe080
-rw-r--r-- 1 fbodo linuxusers  10137864 Jan  5 22:13 fort.92.pe081
-rw-r--r-- 1 fbodo linuxusers  10137864 Jan  5 22:13 fort.92.pe082
-rw-r--r-- 1 fbodo linuxusers  10137864 Jan  5 22:13 fort.92.pe083
-rw-r--r-- 1 fbodo linuxusers  10137864 Jan  5 22:13 fort.92.pe084
-rw-r--r-- 1 fbodo linuxusers  10137864 Jan  5 22:13 fort.92.pe085
-rw-r--r-- 1 fbodo linuxusers  10137864 Jan  5 22:13 fort.92.pe086
-rw-r--r-- 1 fbodo linuxusers  10137864 Jan  5 22:13 fort.92.pe087
-rw-r--r-- 1 fbodo linuxusers  10137864 Jan  5 22:13 fort.92.pe088
-rw-r--r-- 1 fbodo linuxusers  10137864 Jan  5 22:13 fort.92.pe089
-rw-r--r-- 1 fbodo linuxusers  10137864 Jan  5 22:13 fort.92.pe090
-rw-r--r-- 1 fbodo linuxusers  10137864 Jan  5 22:13 fort.92.pe091
-rw-r--r-- 1 fbodo linuxusers  10137864 Jan  5 22:13 fort.92.pe092
-rw-r--r-- 1 fbodo linuxusers  10137864 Jan  5 22:13 fort.92.pe093
-rw-r--r-- 1 fbodo linuxusers  10137864 Jan  5 22:13 fort.92.pe094
-rw-r--r-- 1 fbodo linuxusers  10137864 Jan  5 22:13 fort.92.pe095
-rw-r--r-- 1 fbodo linuxusers  10137864 Jan  5 22:13 fort.92.pe096
-rw-r--r-- 1 fbodo linuxusers  10137864 Jan  5 22:13 fort.92.pe097
-rw-r--r-- 1 fbodo linuxusers  10137864 Jan  5 22:13 fort.92.pe098
-rw-r--r-- 1 fbodo linuxusers  10137864 Jan  5 22:13 fort.92.pe099
-rw-r--r-- 1 fbodo linuxusers  10137864 Jan  5 22:13 fort.92.pe100
-rw-r--r-- 1 fbodo linuxusers  10137864 Jan  5 22:13 fort.92.pe101
-rw-r--r-- 1 fbodo linuxusers  10137864 Jan  5 22:13 fort.92.pe102
-rw-r--r-- 1 fbodo linuxusers  10137864 Jan  5 22:13 fort.92.pe103
-rw-r--r-- 1 fbodo linuxusers  10137864 Jan  5 22:13 fort.92.pe104
-rw-r--r-- 1 fbodo linuxusers  10137864 Jan  5 22:13 fort.92.pe105
-rw-r--r-- 1 fbodo linuxusers  10137864 Jan  5 22:13 fort.92.pe106
-rw-r--r-- 1 fbodo linuxusers  10137864 Jan  5 22:13 fort.92.pe107
-rw-r--r-- 1 fbodo linuxusers   5068936 Jan  5 22:13 fort.92.pe108
-rw-r--r-- 1 fbodo linuxusers  10137864 Jan  5 22:13 fort.92.pe109
-rw-r--r-- 1 fbodo linuxusers  10137864 Jan  5 22:13 fort.92.pe110
-rw-r--r-- 1 fbodo linuxusers   5068936 Jan  5 22:13 fort.92.pe111
-rw-r--r-- 1 fbodo linuxusers  10137864 Jan  5 22:13 fort.92.pe112
-rw-r--r-- 1 fbodo linuxusers  10137864 Jan  5 22:13 fort.92.pe113
-rw-r--r-- 1 fbodo linuxusers  10137864 Jan  5 22:13 fort.92.pe114
-rw-r--r-- 1 fbodo linuxusers  10137864 Jan  5 22:13 fort.92.pe115
-rw-r--r-- 1 fbodo linuxusers  10137864 Jan  5 22:13 fort.92.pe116
-rw-r--r-- 1 fbodo linuxusers  10137864 Jan  5 22:13 fort.92.pe117
-rw-r--r-- 1 fbodo linuxusers  10137864 Jan  5 22:13 fort.92.pe118
-rw-r--r-- 1 fbodo linuxusers  10137864 Jan  5 22:13 fort.92.pe119
-rw-r--r-- 1 fbodo linuxusers  10137864 Jan  5 22:13 fort.92.pe120
-rw-r--r-- 1 fbodo linuxusers  10137864 Jan  5 22:13 fort.92.pe121
-rw-r--r-- 1 fbodo linuxusers  10137864 Jan  5 22:13 fort.92.pe122
-rw-r--r-- 1 fbodo linuxusers  10137864 Jan  5 22:13 fort.92.pe123
-rw-r--r-- 1 fbodo linuxusers   5068936 Jan  5 22:13 fort.92.pe124
-rw-r--r-- 1 fbodo linuxusers  10137864 Jan  5 22:13 fort.92.pe125
-rw-r--r-- 1 fbodo linuxusers  10137864 Jan  5 22:13 fort.92.pe126
-rw-r--r-- 1 fbodo linuxusers   5068936 Jan  5 22:13 fort.92.pe127
-rw-r--r-- 1 fbodo linuxusers  17239688 Jan  7 08:14 fort.95.pe000
-rw-r--r-- 1 fbodo linuxusers  17239688 Jan  7 08:14 fort.95.pe001
-rw-r--r-- 1 fbodo linuxusers  17239688 Jan  7 08:14 fort.95.pe002
-rw-r--r-- 1 fbodo linuxusers  17239688 Jan  7 08:14 fort.95.pe003
-rw-r--r-- 1 fbodo linuxusers  17239688 Jan  7 08:14 fort.95.pe004
-rw-r--r-- 1 fbodo linuxusers  17239688 Jan  7 08:14 fort.95.pe005
-rw-r--r-- 1 fbodo linuxusers  17239688 Jan  7 08:14 fort.95.pe006
-rw-r--r-- 1 fbodo linuxusers  17239688 Jan  7 08:14 fort.95.pe007
-rw-r--r-- 1 fbodo linuxusers  17239688 Jan  7 08:14 fort.95.pe008
-rw-r--r-- 1 fbodo linuxusers  17239688 Jan  7 08:14 fort.95.pe009
-rw-r--r-- 1 fbodo linuxusers  17239688 Jan  7 08:14 fort.95.pe010
-rw-r--r-- 1 fbodo linuxusers  17239688 Jan  7 08:14 fort.95.pe011
-rw-r--r-- 1 fbodo linuxusers  17239688 Jan  7 08:14 fort.95.pe012
-rw-r--r-- 1 fbodo linuxusers  17239688 Jan  7 08:14 fort.95.pe013
-rw-r--r-- 1 fbodo linuxusers  17239688 Jan  7 08:14 fort.95.pe014
-rw-r--r-- 1 fbodo linuxusers  17239688 Jan  7 08:14 fort.95.pe015
-rw-r--r-- 1 fbodo linuxusers  17239688 Jan  7 08:14 fort.95.pe016
-rw-r--r-- 1 fbodo linuxusers  17239688 Jan  7 08:14 fort.95.pe017
-rw-r--r-- 1 fbodo linuxusers  17239688 Jan  7 08:14 fort.95.pe018
-rw-r--r-- 1 fbodo linuxusers  17239688 Jan  7 08:14 fort.95.pe019
-rw-r--r-- 1 fbodo linuxusers  17239688 Jan  7 08:14 fort.95.pe020
-rw-r--r-- 1 fbodo linuxusers  17239688 Jan  7 08:14 fort.95.pe021
-rw-r--r-- 1 fbodo linuxusers  17239688 Jan  7 08:14 fort.95.pe022
-rw-r--r-- 1 fbodo linuxusers  17239688 Jan  7 08:14 fort.95.pe023
-rw-r--r-- 1 fbodo linuxusers  17239688 Jan  7 08:14 fort.95.pe024
-rw-r--r-- 1 fbodo linuxusers  17239688 Jan  7 08:14 fort.95.pe025
-rw-r--r-- 1 fbodo linuxusers  17239688 Jan  7 08:14 fort.95.pe026
-rw-r--r-- 1 fbodo linuxusers  17239688 Jan  7 08:14 fort.95.pe027
-rw-r--r-- 1 fbodo linuxusers  17239688 Jan  7 08:14 fort.95.pe028
-rw-r--r-- 1 fbodo linuxusers  17239688 Jan  7 08:14 fort.95.pe029
-rw-r--r-- 1 fbodo linuxusers  17239688 Jan  7 08:14 fort.95.pe030
-rw-r--r-- 1 fbodo linuxusers  17239688 Jan  7 08:14 fort.95.pe031
-rw-r--r-- 1 fbodo linuxusers  17239688 Jan  7 08:14 fort.95.pe032
-rw-r--r-- 1 fbodo linuxusers  17239688 Jan  7 08:14 fort.95.pe033
-rw-r--r-- 1 fbodo linuxusers  17239688 Jan  7 08:14 fort.95.pe034
-rw-r--r-- 1 fbodo linuxusers  17239688 Jan  7 08:14 fort.95.pe035
-rw-r--r-- 1 fbodo linuxusers  17239688 Jan  7 08:14 fort.95.pe036
-rw-r--r-- 1 fbodo linuxusers  17239688 Jan  7 08:14 fort.95.pe037
-rw-r--r-- 1 fbodo linuxusers  17239688 Jan  7 08:14 fort.95.pe038
-rw-r--r-- 1 fbodo linuxusers  17239688 Jan  7 08:14 fort.95.pe039
-rw-r--r-- 1 fbodo linuxusers  17239688 Jan  7 08:14 fort.95.pe040
-rw-r--r-- 1 fbodo linuxusers  17239688 Jan  7 08:14 fort.95.pe041
-rw-r--r-- 1 fbodo linuxusers  17239688 Jan  7 08:14 fort.95.pe042
-rw-r--r-- 1 fbodo linuxusers  17239688 Jan  7 08:14 fort.95.pe043
-rw-r--r-- 1 fbodo linuxusers  17239688 Jan  7 08:14 fort.95.pe044
-rw-r--r-- 1 fbodo linuxusers  17239688 Jan  7 08:14 fort.95.pe045
-rw-r--r-- 1 fbodo linuxusers  17239688 Jan  7 08:14 fort.95.pe046
-rw-r--r-- 1 fbodo linuxusers  17239688 Jan  7 08:14 fort.95.pe047
-rw-r--r-- 1 fbodo linuxusers  17239688 Jan  7 08:14 fort.95.pe048
-rw-r--r-- 1 fbodo linuxusers  17239688 Jan  7 08:14 fort.95.pe049
-rw-r--r-- 1 fbodo linuxusers  17239688 Jan  7 08:14 fort.95.pe050
-rw-r--r-- 1 fbodo linuxusers  17239688 Jan  7 08:14 fort.95.pe051
-rw-r--r-- 1 fbodo linuxusers  17239688 Jan  7 08:14 fort.95.pe052
-rw-r--r-- 1 fbodo linuxusers  17239688 Jan  7 08:14 fort.95.pe053
-rw-r--r-- 1 fbodo linuxusers  17239688 Jan  7 08:14 fort.95.pe054
-rw-r--r-- 1 fbodo linuxusers  17239688 Jan  7 08:14 fort.95.pe055
-rw-r--r-- 1 fbodo linuxusers  17239688 Jan  7 08:14 fort.95.pe056
-rw-r--r-- 1 fbodo linuxusers  17239688 Jan  7 08:14 fort.95.pe057
-rw-r--r-- 1 fbodo linuxusers  17239688 Jan  7 08:14 fort.95.pe058
-rw-r--r-- 1 fbodo linuxusers  17239688 Jan  7 08:14 fort.95.pe059
-rw-r--r-- 1 fbodo linuxusers  17239688 Jan  7 08:14 fort.95.pe060
-rw-r--r-- 1 fbodo linuxusers  17239688 Jan  7 08:14 fort.95.pe061
-rw-r--r-- 1 fbodo linuxusers  17239688 Jan  7 08:14 fort.95.pe062
-rw-r--r-- 1 fbodo linuxusers  17239688 Jan  7 08:14 fort.95.pe063
-rw-r--r-- 1 fbodo linuxusers  17239688 Jan  7 08:14 fort.95.pe064
-rw-r--r-- 1 fbodo linuxusers  17239688 Jan  7 08:14 fort.95.pe065
-rw-r--r-- 1 fbodo linuxusers  17239688 Jan  7 08:14 fort.95.pe066
-rw-r--r-- 1 fbodo linuxusers  17239688 Jan  7 08:14 fort.95.pe067
-rw-r--r-- 1 fbodo linuxusers  17239688 Jan  7 08:14 fort.95.pe068
-rw-r--r-- 1 fbodo linuxusers  17239688 Jan  7 08:14 fort.95.pe069
-rw-r--r-- 1 fbodo linuxusers  17239688 Jan  7 08:14 fort.95.pe070
-rw-r--r-- 1 fbodo linuxusers  17239688 Jan  7 08:14 fort.95.pe071
-rw-r--r-- 1 fbodo linuxusers  17239688 Jan  7 08:14 fort.95.pe072
-rw-r--r-- 1 fbodo linuxusers  17239688 Jan  7 08:14 fort.95.pe073
-rw-r--r-- 1 fbodo linuxusers  17239688 Jan  7 08:14 fort.95.pe074
-rw-r--r-- 1 fbodo linuxusers  17239688 Jan  7 08:14 fort.95.pe075
-rw-r--r-- 1 fbodo linuxusers  17239688 Jan  7 08:14 fort.95.pe076
-rw-r--r-- 1 fbodo linuxusers  17239688 Jan  7 08:14 fort.95.pe077
-rw-r--r-- 1 fbodo linuxusers  17239688 Jan  7 08:14 fort.95.pe078
-rw-r--r-- 1 fbodo linuxusers  17239688 Jan  7 08:14 fort.95.pe079
-rw-r--r-- 1 fbodo linuxusers  17239688 Jan  7 08:14 fort.95.pe080
-rw-r--r-- 1 fbodo linuxusers  17239688 Jan  7 08:14 fort.95.pe081
-rw-r--r-- 1 fbodo linuxusers  17239688 Jan  7 08:14 fort.95.pe082
-rw-r--r-- 1 fbodo linuxusers  17239688 Jan  7 08:14 fort.95.pe083
-rw-r--r-- 1 fbodo linuxusers  17239688 Jan  7 08:14 fort.95.pe084
-rw-r--r-- 1 fbodo linuxusers  17239688 Jan  7 08:14 fort.95.pe085
-rw-r--r-- 1 fbodo linuxusers  17239688 Jan  7 08:14 fort.95.pe086
-rw-r--r-- 1 fbodo linuxusers  17239688 Jan  7 08:14 fort.95.pe087
-rw-r--r-- 1 fbodo linuxusers  17239688 Jan  7 08:14 fort.95.pe088
-rw-r--r-- 1 fbodo linuxusers  17239688 Jan  7 08:14 fort.95.pe089
-rw-r--r-- 1 fbodo linuxusers  17239688 Jan  7 08:14 fort.95.pe090
-rw-r--r-- 1 fbodo linuxusers  17239688 Jan  7 08:14 fort.95.pe091
-rw-r--r-- 1 fbodo linuxusers  17239688 Jan  7 08:14 fort.95.pe092
-rw-r--r-- 1 fbodo linuxusers  17239688 Jan  7 08:14 fort.95.pe093
-rw-r--r-- 1 fbodo linuxusers  17239688 Jan  7 08:14 fort.95.pe094
-rw-r--r-- 1 fbodo linuxusers  17239688 Jan  7 08:14 fort.95.pe095
-rw-r--r-- 1 fbodo linuxusers  17239688 Jan  7 08:14 fort.95.pe096
-rw-r--r-- 1 fbodo linuxusers  17239688 Jan  7 08:14 fort.95.pe097
-rw-r--r-- 1 fbodo linuxusers  17239688 Jan  7 08:14 fort.95.pe098
-rw-r--r-- 1 fbodo linuxusers  17239688 Jan  7 08:14 fort.95.pe099
-rw-r--r-- 1 fbodo linuxusers  17239688 Jan  7 08:14 fort.95.pe100
-rw-r--r-- 1 fbodo linuxusers  17239688 Jan  7 08:14 fort.95.pe101
-rw-r--r-- 1 fbodo linuxusers  17239688 Jan  7 08:14 fort.95.pe102
-rw-r--r-- 1 fbodo linuxusers  17239688 Jan  7 08:14 fort.95.pe103
-rw-r--r-- 1 fbodo linuxusers  17239688 Jan  7 08:14 fort.95.pe104
-rw-r--r-- 1 fbodo linuxusers  17239688 Jan  7 08:14 fort.95.pe105
-rw-r--r-- 1 fbodo linuxusers  17239688 Jan  7 08:14 fort.95.pe106
-rw-r--r-- 1 fbodo linuxusers  17239688 Jan  7 08:14 fort.95.pe107
-rw-r--r-- 1 fbodo linuxusers  17239688 Jan  7 08:14 fort.95.pe108
-rw-r--r-- 1 fbodo linuxusers  17239688 Jan  7 08:14 fort.95.pe109
-rw-r--r-- 1 fbodo linuxusers  17239688 Jan  7 08:14 fort.95.pe110
-rw-r--r-- 1 fbodo linuxusers  17239688 Jan  7 08:14 fort.95.pe111
-rw-r--r-- 1 fbodo linuxusers  17239688 Jan  7 08:14 fort.95.pe112
-rw-r--r-- 1 fbodo linuxusers  17239688 Jan  7 08:14 fort.95.pe113
-rw-r--r-- 1 fbodo linuxusers  17239688 Jan  7 08:14 fort.95.pe114
-rw-r--r-- 1 fbodo linuxusers  17239688 Jan  7 08:14 fort.95.pe115
-rw-r--r-- 1 fbodo linuxusers  17239688 Jan  7 08:14 fort.95.pe116
-rw-r--r-- 1 fbodo linuxusers  17239688 Jan  7 08:14 fort.95.pe117
-rw-r--r-- 1 fbodo linuxusers  17239688 Jan  7 08:14 fort.95.pe118
-rw-r--r-- 1 fbodo linuxusers  17239688 Jan  7 08:14 fort.95.pe119
-rw-r--r-- 1 fbodo linuxusers  17239688 Jan  7 08:14 fort.95.pe120
-rw-r--r-- 1 fbodo linuxusers  17239688 Jan  7 08:14 fort.95.pe121
-rw-r--r-- 1 fbodo linuxusers  17239688 Jan  7 08:14 fort.95.pe122
-rw-r--r-- 1 fbodo linuxusers  17239688 Jan  7 08:14 fort.95.pe123
-rw-r--r-- 1 fbodo linuxusers  17239688 Jan  7 08:14 fort.95.pe124
-rw-r--r-- 1 fbodo linuxusers  17239688 Jan  7 08:14 fort.95.pe125
-rw-r--r-- 1 fbodo linuxusers  17239688 Jan  7 08:14 fort.95.pe126
-rw-r--r-- 1 fbodo linuxusers  17239688 Jan  7 08:14 fort.95.pe127
-rw-r--r-- 1 fbodo linuxusers  34001884 Jan  5 21:39 fort.98
-rw-r--r-- 1 fbodo linuxusers  85433717 Jan  7 08:21 FREQINFO.DAT
-rw-r--r-- 1 fbodo linuxusers    247860 Jan  7 08:21 HESSFREQ.DAT
-rw-r----- 1 fbodo linuxusers      1419 Jan  5 21:27 INPUT
-rw-r--r-- 1 fbodo linuxusers         0 Jan  6 02:57 MULLIKEN.DAT
-rwxr-xr-x 1 fbodo linuxusers 112779232 Jan  5 21:27 Pcrystal
lrwxrwxrwx 1 fbodo linuxusers        80 Jan  5 21:27 SCFOUT.LOG -> /users/fbodo/Application/fbodo/Fili/Mg(IO3)2/P21/MgIO32_p21_FREQ_exp_pbe0d3.out2
-rw-r--r-- 1 fbodo linuxusers      5292 Jan  6 01:04 TENS_IR.DAT
-rw-r--r-- 1 fbodo linuxusers     10476 Jan  6 02:42 TENS_RAMAN.DAT
================================================================================
Copying output file back on run directory...
================================================================================
Removing temporary directory /lustre/scratch/client/users/fbodo/prova/tmp_p258862 from each node...
Job terminated
